  
<additional>
<variableSpeedSign id="1" lanes="557620616_0" file="../images/speed60.jpg">
<step  time = "20" speed="60"/>
    
 </variableSpeedSign>
</additional>
