<?xml version="1.0" encoding="UTF-8"?>

<!-- generated on Tue Nov 19 12:15:43 2019 by Eclipse SUMO polyconvert Version 1.2.0
<configuration xmlns:xsi="http://www.w3.org/2001/XMLSchema-instance" xsi:noNamespaceSchemaLocation="http://sumo.dlr.de/xsd/polyconvertConfiguration.xsd">

    <input>
        <net-file value="tunnel.net.xml"/>
        <osm-files value="tunnel.osm"/>
        <type-file value="typemap.xml"/>
    </input>

    <output>
        <output-file value="tunnel.poly.xml"/>
    </output>

    <processing>
        <poi-layer-offset value="5"/>
    </processing>

</configuration>
-->

<additional xmlns:xsi="http://www.w3.org/2001/XMLSchema-instance" xsi:noNamespaceSchemaLocation="http://sumo.dlr.de/xsd/additional_file.xsd">
    <location netOffset="-602769.71,-5341196.23" convBoundary="-3219.96,-6970.32,11081.53,9569.01" origBoundary="16.342293,48.151085,16.530743,48.302238" projParameter="+proj=utm +zone=33 +ellps=WGS84 +datum=WGS84 +units=m +no_defs"/>

    <poly id="101393801" type="building" color="255,230,230" fill="1" layer="-1.00" shape="1284.484818,1528.814710 1276.941867,1537.115948 1279.148893,1539.113038 1286.692047,1530.800688 1284.484818,1528.814710"/>
    <poly id="101393806" type="building" color="255,230,230" fill="1" layer="-1.00" shape="1305.324264,1518.932660 1298.521812,1526.546926 1303.046844,1530.565385 1309.856723,1522.951260 1305.324264,1518.932660"/>
    <poly id="101419544" type="natural" color="140,196,107" fill="1" layer="-4.00" shape="1400.568707,2372.094127 1405.143531,2370.498824 1407.707339,2370.834739 1408.833600,2373.423660 1409.350739,2377.235595 1410.532771,2380.837309 1414.464265,2382.743669 1422.493175,2381.133658 1426.645467,2379.085917 1433.856921,2374.247772 1438.634574,2365.618264 1440.921980,2357.098909 1444.244127,2352.111874 1443.090342,2346.965213 1440.863025,2344.067085 1436.725322,2341.656612 1424.415624,2340.553330 1419.232617,2338.846466 1411.826380,2338.488787 1404.881716,2340.919145 1399.288000,2345.431089 1397.171865,2349.050382 1394.095744,2352.363061 1392.905871,2357.322362 1391.095362,2360.068886 1391.546181,2363.445990 1394.434552,2366.345055 1400.568707,2372.094127"/>
    <poly id="101764685" type="forest" color="140,196,107" fill="1" layer="-3.00" shape="1165.437965,2830.283502 1145.590854,2838.149343 1125.128793,2843.491293 1104.899499,2842.989292 1094.761442,2851.565879 1089.888715,2863.017986 1088.773855,2874.071576 1087.636048,2884.346463 1082.145491,2910.963899 1079.108044,2933.790182 1067.275513,2977.103098 1048.569547,3026.339264 1026.201119,3074.430323 1029.249347,3073.840954 1043.056280,3055.035455 1054.746901,3032.956002 1067.653794,3015.868634 1127.484246,2940.430847 1140.741191,2921.682256 1154.152797,2894.453192 1173.678613,2852.870610 1176.433050,2840.701729 1176.859802,2831.959347 1165.437965,2830.283502"/>
    <poly id="101764699" type="forest" color="140,196,107" fill="1" layer="-3.00" shape="1016.217593,3026.406226 989.627596,3079.179233 988.155011,3088.680875 996.914774,3096.634280 1002.310270,3098.466951 1008.043264,3093.590275 1036.653399,3036.740333 1033.249420,3033.209425 1016.217593,3026.406226"/>
    <poly id="101782124" type="building" color="255,230,230" fill="1" layer="-1.00" shape="912.614563,2049.352592 919.514169,2055.126151 977.547333,1986.202680 970.647697,1980.429052 964.414612,1987.831679 959.813826,1993.296053 931.989097,2026.345210 924.290648,2035.500169 912.614563,2049.352592"/>
    <poly id="102063219" type="building" color="255,230,230" fill="0" layer="-1.00" shape="964.414612,1987.831679 959.205416,1983.456369"/>
    <poly id="102063220" type="building" color="255,230,230" fill="0" layer="-1.00" shape="959.813826,1993.296053 954.911102,1988.815137"/>
    <poly id="102063221" type="building" color="255,230,230" fill="0" layer="-1.00" shape="931.989097,2026.345210 927.319755,2022.102047"/>
    <poly id="102063227" type="building" color="255,230,230" fill="0" layer="-1.00" shape="924.290648,2035.500169 919.640756,2031.413022"/>
    <poly id="103149621" type="building" color="255,230,230" fill="1" layer="-1.00" shape="2338.035954,2678.020170 2344.727889,2684.870192 2349.507599,2680.221848 2342.823089,2673.371957 2338.035954,2678.020170"/>
    <poly id="103149624" type="building" color="255,230,230" fill="1" layer="-1.00" shape="2445.726952,2587.678682 2430.335886,2564.412867 2423.155527,2569.139163 2418.747738,2562.475728 2412.063579,2566.877638 2425.214525,2586.766538 2431.973740,2582.321555 2438.614252,2592.361733 2445.726952,2587.678682"/>
    <poly id="103149629" type="parking" color="184,184,179" fill="1" layer="-1.00" shape="2017.962563,3109.016678 2069.012285,3191.064216 2172.541909,3125.524513 2119.727220,3041.764673 2017.962563,3109.016678"/>
    <poly id="103149633" type="water" color="181,209,209" fill="1" layer="-4.00" shape="2522.591804,2650.482520 2521.148514,2648.198821 2526.453447,2645.283680 2532.251570,2643.011403 2537.057346,2641.788178 2540.659148,2641.409960 2547.343054,2641.044196 2548.814187,2641.015776 2552.128101,2640.943565 2556.179942,2640.729327 2559.005807,2639.736391 2561.244500,2638.765965 2563.626317,2637.686999 2564.714170,2636.695315 2565.267028,2635.715985 2565.824814,2634.469903 2566.426467,2632.457458 2568.317150,2622.986101 2569.601615,2620.196859 2569.991311,2616.390426 2570.268846,2613.026659 2570.333139,2612.360739 2570.793445,2611.968978 2573.112386,2611.077868 2575.323890,2610.373788 2578.192949,2610.260017 2582.604144,2610.697308 2586.074061,2611.428527 2588.380130,2612.038178 2589.912754,2612.299984 2593.350126,2613.586530 2596.182596,2615.050914 2598.582987,2616.585144 2600.906315,2619.074140 2602.648894,2622.041616 2603.992966,2624.468043 2604.874059,2627.430718 2605.185322,2630.683062 2604.879209,2632.778794 2604.688576,2634.654292 2604.070622,2636.744262 2603.234824,2638.163098 2602.209063,2639.411647 2600.314635,2641.044409 2598.350858,2642.008781 2594.281147,2643.189965 2589.129506,2644.640240 2584.990274,2645.564420 2581.592668,2646.146515 2577.003403,2646.906728 2572.981264,2647.121499 2568.226914,2646.766823 2563.907513,2646.186698 2555.796551,2645.803382 2553.437288,2645.259473 2550.899624,2644.723387 2548.956387,2644.576310 2543.835142,2644.381654 2540.262389,2644.393498 2537.344694,2644.728758 2533.968957,2645.333522 2530.823424,2646.342804 2528.073082,2647.670702 2522.591804,2650.482520"/>
    <poly id="103149639" type="amenity" color="237,199,199" fill="1" layer="-1.00" shape="2264.939986,2541.573028 2274.116775,2544.988657 2276.710017,2538.076285 2267.533218,2534.660652 2264.939986,2541.573028"/>
    <poly id="103149639#1" type="building" color="255,230,230" fill="1" layer="-1.00" shape="2264.939986,2541.573028 2274.116775,2544.988657 2276.710017,2538.076285 2267.533218,2534.660652 2264.939986,2541.573028"/>
    <poly id="105079526" type="leisure" color="207,245,201" fill="1" layer="-2.00" shape="1533.325134,2667.935199 1544.093660,2672.857510 1550.413229,2675.752726 1543.544651,2688.657827 1545.213790,2689.577835 1537.775093,2706.041518 1515.938937,2697.937052 1521.553869,2683.318994 1526.737002,2681.345777 1533.325134,2667.935199"/>
    <poly id="105079529" type="leisure" color="207,245,201" fill="1" layer="-2.00" shape="1538.230012,2618.648127 1554.177783,2625.877762 1553.170468,2628.160840 1567.278579,2634.856528 1563.993709,2641.867722 1554.177080,2662.857537 1519.512968,2646.279646 1538.230012,2618.648127"/>
    <poly id="105079529#1" type="sport" color="79,230,125" fill="1" layer="-2.00" shape="1538.230012,2618.648127 1554.177783,2625.877762 1553.170468,2628.160840 1567.278579,2634.856528 1563.993709,2641.867722 1554.177080,2662.857537 1519.512968,2646.279646 1538.230012,2618.648127"/>
    <poly id="105079534" type="amenity" color="237,199,199" fill="1" layer="-1.00" shape="1557.807961,2548.437841 1565.039562,2542.899774 1568.236451,2547.194378 1562.719889,2551.551916 1561.001598,2552.910276 1557.807961,2548.437841"/>
    <poly id="105080464" type="building" color="255,230,230" fill="1" layer="-1.00" shape="1076.436405,2847.640855 1078.253838,2844.905483 1083.292575,2847.988101 1091.890295,2832.234322 1086.855395,2828.940518 1085.014430,2820.734982 1077.007678,2816.275220 1069.461134,2828.957257 1064.416301,2826.208092 1059.600225,2834.959491 1060.655607,2838.180800 1076.436405,2847.640855"/>
    <poly id="105080465" type="water" color="181,209,209" fill="0" layer="-4.00" shape="1140.114093,2782.079636 1141.816048,2786.091031 1141.767839,2788.736325 1140.846711,2790.376176 1139.499486,2791.352277 1137.615402,2791.629256 1135.600449,2790.936553 1134.120608,2789.408605 1133.172569,2787.634625 1131.818064,2786.564815 1129.794805,2786.327816 1127.827430,2786.692227 1126.494447,2787.701946 1125.879351,2789.258429 1125.714722,2790.956540 1124.513086,2792.502335 1123.057331,2793.320805 1121.160628,2793.475257 1119.468709,2792.988576 1117.718272,2792.044976 1115.889065,2791.755925 1113.914807,2792.498240 1112.708181,2793.910526 1111.891748,2795.919195 1111.264574,2797.731181 1109.748211,2798.615261 1107.841453,2798.914073 1106.081836,2798.882016 1099.094867,2797.965325 1097.063107,2798.195153 1095.341627,2799.331223 1093.624602,2800.222770 1090.679827,2800.424851 1080.488898,2799.260809 1078.802848,2798.451814 1077.390155,2797.314247 1076.436229,2795.862604 1075.943499,2793.963507 1076.049592,2791.808475 1076.734937,2790.064255 1077.872507,2788.773006 1079.197044,2787.818714 1080.769496,2787.524922 1082.670183,2787.559541 1084.292856,2788.178370 1085.714190,2789.249386 1086.738580,2790.502184 1087.295359,2792.146726 1087.455195,2793.973050 1087.165575,2795.602175 1086.679136,2797.027584 1084.949155,2798.630474"/>
    <poly id="105080466" type="water" color="181,209,209" fill="0" layer="-4.00" shape="1084.949155,2798.630474 1080.922563,2800.324953 1077.049185,2801.355124 1075.269528,2802.423429 1073.991234,2804.101258 1073.505140,2805.915818 1073.532350,2807.684134 1073.815102,2810.101970 1073.187067,2812.369797 1072.245308,2813.920336 1070.650055,2815.058711 1068.089072,2815.801475 1063.548853,2817.153061 1061.353909,2819.003212 1060.541141,2820.811824 1060.297972,2823.153371 1061.258392,2826.695384 1060.028978,2828.952261 1052.159420,2830.009743 1036.204672,2821.124747"/>
    <poly id="105080469" type="leisure" color="207,245,201" fill="1" layer="-2.00" shape="1134.786026,2767.973390 1125.586519,2780.058199 1107.184452,2789.318068 1093.830068,2770.596056 1050.060037,2779.705374 1040.893538,2804.265723 1036.441862,2810.544379 1035.992078,2811.181056 1029.777876,2820.852086 1060.618253,2843.494701 1075.788664,2850.175164 1084.427177,2850.121257 1095.366169,2827.338846 1089.834666,2808.903890 1147.872833,2791.182448 1134.786026,2767.973390"/>
    <poly id="108786443" type="forest" color="140,196,107" fill="1" layer="-3.00" shape="1031.939981,2489.519730 1046.807846,2475.747907 1099.812161,2409.569351 1099.664274,2395.668703 1093.051729,2386.809227 1077.287108,2399.230405 1046.151538,2424.491432 1023.275838,2455.451021 1010.649414,2492.167519 1019.288047,2499.073592 1031.939981,2489.519730"/>
    <poly id="108786450" type="forest" color="140,196,107" fill="1" layer="-3.00" shape="946.419263,2496.958343 957.026008,2505.100899 967.791855,2504.496223 985.834648,2520.323484 999.854815,2494.350398 996.907978,2481.188228 987.525235,2471.088801 957.394584,2484.838840 946.419263,2496.958343"/>
    <poly id="108786454" type="forest" color="140,196,107" fill="1" layer="-3.00" shape="1002.697457,2447.527129 1005.807228,2430.105663 1015.301924,2411.610738 1052.346270,2368.589915 1074.850782,2336.422889 1081.120350,2342.096243 1074.781423,2361.849317 1047.358206,2401.865301 1034.923534,2406.408708 1030.340434,2417.443640 1032.135103,2428.205526 1008.223062,2450.407278 1002.697457,2447.527129"/>
    <poly id="111290218" type="amenity" color="237,199,199" fill="1" layer="-1.00" shape="1841.297680,1609.267692 1856.234093,1604.949753 1854.920145,1600.444937 1853.787857,1596.566085 1838.858849,1600.884167 1840.095608,1605.142958 1841.297680,1609.267692"/>
    <poly id="111290218#1" type="building" color="255,230,230" fill="1" layer="-1.00" shape="1841.297680,1609.267692 1856.234093,1604.949753 1854.920145,1600.444937 1853.787857,1596.566085 1838.858849,1600.884167 1840.095608,1605.142958 1841.297680,1609.267692"/>
    <poly id="112388015" type="building" color="255,230,230" fill="0" layer="-1.00" shape="1615.099762,1649.296963 1611.353763,1646.159735"/>
    <poly id="112388016" type="building" color="255,230,230" fill="0" layer="-1.00" shape="1627.981905,1639.092571 1625.187258,1636.739915"/>
    <poly id="112388017" type="building" color="255,230,230" fill="0" layer="-1.00" shape="1591.707078,1698.434646 1587.184422,1695.116448"/>
    <poly id="112388018" type="building" color="255,230,230" fill="0" layer="-1.00" shape="1609.290781,1674.051358 1604.672593,1670.675806"/>
    <poly id="112388019" type="building" color="255,230,230" fill="0" layer="-1.00" shape="1618.589908,1650.583859 1615.875119,1648.332735"/>
    <poly id="112388020" type="building" color="255,230,230" fill="0" layer="-1.00" shape="1602.328796,1683.874910 1589.975616,1674.920945"/>
    <poly id="112388021" type="building" color="255,230,230" fill="0" layer="-1.00" shape="1595.318514,1693.497455 1590.654355,1690.198901"/>
    <poly id="112388022" type="building" color="255,230,230" fill="0" layer="-1.00" shape="1612.747316,1669.055750 1608.110613,1665.879987"/>
    <poly id="112388023" type="building" color="255,230,230" fill="0" layer="-1.00" shape="1605.787150,1678.779266 1601.150858,1675.581279"/>
    <poly id="112388024" type="building" color="255,230,230" fill="0" layer="-1.00" shape="1587.184422,1695.116448 1590.654355,1690.198901 1593.977708,1685.578870 1601.150858,1675.581279 1604.672593,1670.675806 1608.110613,1665.879987 1609.711369,1663.652249"/>
    <poly id="112388025" type="building" color="255,230,230" fill="0" layer="-1.00" shape="1598.664350,1688.866720 1593.977708,1685.578870"/>
    <poly id="112388026" type="building" color="255,230,230" fill="0" layer="-1.00" shape="1621.695511,1646.904920 1618.870144,1644.607298"/>
    <poly id="112388027" type="building" color="255,230,230" fill="0" layer="-1.00" shape="1612.249522,1658.506414 1609.421311,1656.364401"/>
    <poly id="112388028" type="building" color="255,230,230" fill="0" layer="-1.00" shape="1615.309848,1654.459737 1612.712859,1652.266362"/>
    <poly id="112388029" type="building" color="255,230,230" fill="0" layer="-1.00" shape="1607.984432,1658.161521 1609.421311,1656.364401 1612.712859,1652.266362 1615.099762,1649.296963 1615.875119,1648.332735 1618.870144,1644.607298 1622.070560,1640.618780 1625.187258,1636.739915 1626.783553,1634.756705"/>
    <poly id="112388030" type="building" color="255,230,230" fill="0" layer="-1.00" shape="1624.813223,1642.970482 1622.070560,1640.618780"/>
    <poly id="114803484" type="forest" color="140,196,107" fill="1" layer="-3.00" shape="814.648357,2710.470362 809.086980,2709.568812 811.192078,2703.258474 819.234664,2699.224082 854.564262,2684.578304 858.110440,2686.432806 858.027417,2691.000941 855.593444,2693.336033 851.230861,2692.267217 848.370864,2696.384625 843.997579,2695.904893 840.292504,2702.386276 847.935897,2709.285129 846.704575,2711.241820 860.048570,2722.413669 863.076505,2720.089374 865.470876,2719.932762 867.536438,2715.800922 872.686008,2695.636881 865.972483,2692.335005 862.316143,2685.508591 865.197771,2680.201919 869.596320,2679.292332 872.144305,2681.717973 874.184630,2678.975471 878.980681,2678.262129 880.890894,2682.677485 877.640847,2686.187398 873.267555,2685.707643 872.225575,2688.279280 877.510936,2693.334138 877.742156,2702.677760 874.107604,2716.309506 865.734637,2727.486919 859.131517,2729.145843 848.735887,2720.028878 846.435437,2715.017169 843.261170,2714.359095 838.208781,2707.518447 834.046518,2706.053022 834.891600,2703.689050 837.683119,2703.339513 838.392769,2697.392971 835.400627,2697.338602 834.949360,2700.510251 831.144806,2701.430656 827.809644,2698.590471 828.149186,2701.976619 814.648357,2710.470362"/>
    <poly id="114803485" type="forest" color="140,196,107" fill="1" layer="-3.00" shape="783.181155,2852.702887 791.347912,2852.450957 791.828173,2848.090167 796.681609,2844.209073 797.674488,2833.297767 799.951327,2828.569352 801.205850,2814.293939 797.899613,2809.864370 799.535457,2807.714888 796.787241,2805.274523 788.429085,2815.651789 786.770195,2830.520250 783.695156,2835.034043 783.848785,2837.616291 779.820830,2851.252064 783.181155,2852.702887"/>
    <poly id="114803487" type="forest" color="140,196,107" fill="1" layer="-3.00" shape="834.728029,2745.391019 830.748439,2745.318709 828.998536,2742.707457 831.464993,2738.582889 830.123644,2735.967941 833.796018,2730.875752 830.081910,2727.228158 834.158855,2721.943189 839.691538,2724.423049 843.124030,2721.905965 848.488561,2722.603841 847.954475,2730.332510 844.167915,2730.263699 844.518149,2733.060770 843.032239,2737.992554 838.684231,2736.123489 835.827542,2739.651691 836.167075,2743.037840 834.728029,2745.391019"/>
    <poly id="114803488" type="forest" color="140,196,107" fill="1" layer="-3.00" shape="1460.298946,1914.196532 1465.234262,1916.877311 1478.464904,1912.349347 1487.634767,1901.187338 1492.037682,1900.078158 1493.808345,1890.582077 1497.442004,1887.668780 1497.357847,1881.707790 1490.356018,1883.169718 1484.604389,1881.663663 1473.586001,1885.042381 1466.059890,1893.243611 1466.122457,1900.794133 1460.298946,1914.196532"/>
    <poly id="114803490" type="forest" color="140,196,107" fill="1" layer="-3.00" shape="780.469096,2703.912342 784.660037,2703.799442 788.181192,2707.032122 794.820607,2703.783851 795.275485,2700.412135 801.842681,2700.731550 804.601849,2702.571724 815.512899,2695.587478 833.770016,2688.569949 836.841378,2683.855983 841.050513,2682.742803 849.547860,2675.347854 853.549265,2674.631169 855.829844,2669.702711 860.407252,2669.986031 861.503165,2664.446773 856.979888,2661.184716 853.357593,2663.109072 852.691352,2666.665955 848.489628,2667.779262 845.176065,2663.749796 840.394703,2664.063173 839.264356,2660.462524 832.667880,2661.343317 820.107584,2651.175310 791.589408,2685.813502 787.825217,2693.917123 781.371886,2698.369563 780.469096,2703.912342"/>
    <poly id="114803491" type="forest" color="140,196,107" fill="1" layer="-3.00" shape="1328.805464,2055.811213 1322.433071,2054.138329 1322.079157,2051.552407 1328.577376,2045.111176 1330.516736,2038.564500 1384.669354,1975.389082 1388.073503,1974.461716 1392.403871,1977.320397 1393.902213,1982.317676 1380.914418,2006.507548 1364.962931,2028.664260 1343.281907,2048.526096 1328.805464,2055.811213"/>
    <poly id="114803493" type="forest" color="140,196,107" fill="1" layer="-3.00" shape="902.775421,2561.940869 913.531794,2563.893144 920.848356,2555.687421 921.558103,2549.740889 917.307387,2542.514491 912.493231,2544.217009 907.897737,2544.922854 904.581121,2550.455084 900.783528,2550.986431 902.775421,2561.940869"/>
    <poly id="114803494" type="forest" color="140,196,107" fill="1" layer="-3.00" shape="1386.334426,2047.722280 1391.984408,2054.785572 1396.981227,2053.687171 1399.834939,2050.359308 1398.890672,2047.562467 1400.315703,2045.998568 1405.079558,2046.674858 1414.413013,2037.517036 1414.518189,2031.759639 1412.393031,2028.140699 1407.793395,2029.046213 1403.853091,2026.795036 1392.041526,2040.677397 1388.229128,2041.997565 1386.334426,2047.722280"/>
    <poly id="114803495" type="forest" color="140,196,107" fill="1" layer="-3.00" shape="1368.182849,2081.757699 1372.148294,2082.630633 1373.999537,2079.284453 1373.284775,2074.901879 1376.824198,2077.545976 1379.294975,2073.221576 1382.895900,2072.497933 1384.425949,2064.776368 1379.566963,2058.327920 1376.753252,2059.466203 1373.243817,2066.162088 1365.940403,2073.578102 1368.182849,2081.757699"/>
    <poly id="114803496" type="forest" color="140,196,107" fill="1" layer="-3.00" shape="1108.256798,2383.906335 1104.330873,2380.465957 1104.450325,2373.908298 1111.090512,2370.649274 1110.926075,2368.667210 1109.340611,2368.037937 1108.826172,2363.659049 1114.449405,2361.182026 1116.755634,2354.864335 1120.396236,2351.950938 1128.702655,2355.081994 1129.152210,2363.428958 1124.763969,2363.349007 1125.515053,2366.153400 1120.836161,2371.427208 1113.183121,2376.057565 1113.704843,2380.036325 1108.256798,2383.906335"/>
    <poly id="114803497" type="forest" color="140,196,107" fill="1" layer="-3.00" shape="891.842426,2661.218018 896.605608,2661.905006 903.521443,2654.081121 902.262958,2646.909136 895.101372,2646.189658 891.842426,2661.218018"/>
    <poly id="114803498" type="forest" color="140,196,107" fill="1" layer="-3.00" shape="771.509311,2782.178467 775.860937,2783.847416 779.690859,2781.526525 783.283987,2781.202638 786.759821,2776.295864 787.257890,2770.545604 778.047047,2762.439820 772.453220,2763.327769 769.779087,2767.848850 765.974590,2768.769298 764.707182,2772.715534 771.509311,2782.178467"/>
    <poly id="114803499" type="forest" color="140,196,107" fill="1" layer="-3.00" shape="1274.162727,2100.732939 1279.459063,2105.199085 1293.439217,2083.172953 1297.546159,2076.699174 1306.019628,2070.694224 1308.365929,2062.198134 1311.194228,2060.259562 1307.490584,2055.622321 1292.403122,2074.415009 1274.162727,2100.732939"/>
    <poly id="114803501" type="forest" color="140,196,107" fill="1" layer="-3.00" shape="793.269631,2801.441508 796.898885,2799.128102 802.875638,2799.236667 805.891377,2795.944825 805.847409,2788.961702 807.326209,2784.418922 806.060217,2777.246825 810.953497,2771.176149 810.063195,2765.400669 801.338328,2763.251993 795.917946,2776.262072 786.991021,2785.239217 785.987460,2796.739601 793.269631,2801.441508"/>
    <poly id="114803502" type="forest" color="140,196,107" fill="1" layer="-3.00" shape="740.349133,2995.118367 744.529162,2995.594519 756.606168,2977.535231 759.789091,2967.075066 765.061328,2961.800640 765.945750,2956.857916 768.962986,2955.522914 771.068164,2949.201447 774.314570,2945.880425 780.713066,2922.759273 779.822765,2916.983797 781.687741,2912.848286 781.033829,2905.098036 781.147858,2897.183840 784.493035,2890.062140 778.911631,2879.231561 780.139262,2877.474920 778.293841,2869.491783 777.872717,2859.555447 773.815470,2852.721807 766.972100,2856.577903 759.077903,2852.454187 757.144309,2860.368698 752.652079,2866.446698 755.674910,2875.440737 753.452412,2877.179319 754.323234,2895.073438 750.006948,2911.505819 752.957033,2915.506397 752.254753,2921.052822 749.976542,2924.224660 742.683805,2920.111884 740.639631,2922.665348 733.708052,2920.749455 731.958163,2918.138231 726.601069,2917.040333 725.351673,2919.997371 722.771258,2919.361259 720.633845,2927.461093 723.746873,2931.486851 727.361692,2929.962544 734.847823,2934.467954 734.400256,2937.439546 738.737243,2939.908727 741.382261,2936.576768 743.139203,2938.798981 746.714471,2939.453166 747.221846,2944.232150 748.763998,2947.239868 751.945409,2947.497763 753.876783,2941.339909 758.540556,2936.854950 759.858385,2930.130040 763.366408,2923.444902 763.431397,2919.865973 764.688079,2916.508814 764.144587,2913.719356 767.065577,2906.234157 767.204817,2896.930625 768.536382,2880.043793 770.945214,2879.086885 771.110206,2903.127758 772.254915,2905.527874 769.821223,2908.263265 770.353814,2911.652916 768.703477,2914.602665 770.141071,2923.367796 766.479409,2927.470683 767.588143,2932.260590 759.598839,2944.423528 755.854250,2953.094558 757.181406,2956.898896 752.739902,2960.187109 746.081457,2975.954338 743.268326,2977.092927 737.041514,2989.132236 740.349133,2995.118367"/>
    <poly id="114803507" type="forest" color="140,196,107" fill="1" layer="-3.00" shape="1264.224593,2166.672578 1278.683772,2171.305886 1288.589357,2163.336856 1299.836382,2158.383163 1307.915099,2141.441656 1311.738364,2139.521243 1319.477758,2119.604953 1322.061808,2119.652117 1350.614962,2083.427123 1329.079440,2062.776315 1316.593288,2070.086672 1307.449378,2079.859617 1299.024169,2093.803961 1298.874386,2091.021635 1296.924113,2088.806846 1287.984606,2098.372301 1292.468360,2103.813169 1286.768544,2110.469136 1283.978917,2108.661535 1280.374504,2109.985568 1270.079859,2127.876220 1272.226965,2130.294722 1269.688720,2149.316419 1266.295442,2149.654777 1262.822811,2154.750351 1264.572385,2156.972586 1264.070036,2162.522607 1258.296743,2162.217161 1256.638780,2165.967163 1260.181845,2168.411124 1264.224593,2166.672578"/>
    <poly id="114803510" type="forest" color="140,196,107" fill="1" layer="-3.00" shape="1423.033652,2001.917824 1430.738211,1994.509208 1430.411748,1968.875386 1433.326936,1961.779532 1434.095341,1952.654266 1432.593051,1947.467891 1433.274338,1943.110817 1428.539524,1940.433729 1412.528815,1955.239990 1413.425988,1960.615436 1402.088658,1981.466546 1403.146333,1989.035241 1408.321979,1989.129781 1423.033652,2001.917824"/>
    <poly id="114803516" type="forest" color="140,196,107" fill="1" layer="-3.00" shape="783.479893,2814.172106 777.886764,2837.107751 775.044695,2839.835725 770.077196,2838.956112 766.431544,2831.540680 757.551680,2825.253227 745.899587,2819.482493 742.901930,2809.099125 743.586250,2804.541908 735.373763,2795.853927 738.977105,2785.557040 751.505679,2764.737462 757.605167,2758.088252 760.181818,2758.935558 758.835100,2767.249866 759.857502,2776.796855 762.627184,2777.647667 760.507632,2784.758280 770.966330,2801.036447 783.479893,2814.172106"/>
    <poly id="114803518" type="forest" color="140,196,107" fill="1" layer="-3.00" shape="949.727409,2556.412773 962.432472,2558.622954 971.540593,2539.720670 959.290474,2534.138765 949.727409,2556.412773"/>
    <poly id="114803520" type="forest" color="140,196,107" fill="1" layer="-3.00" shape="939.036203,2572.929205 941.905000,2569.968308 946.464291,2571.252018 948.515754,2568.309613 950.888412,2568.942043 952.419652,2572.550007 950.368538,2575.881560 947.408678,2574.048785 946.374125,2576.209165 948.528262,2578.238533 946.258487,2582.566762 941.910389,2580.697620 941.971845,2577.318758 939.036203,2572.929205"/>
    <poly id="114803522" type="forest" color="140,196,107" fill="1" layer="-3.00" shape="1120.573414,2342.225598 1109.668171,2339.047213 1108.942519,2335.253751 1106.215993,2332.024233 1109.101658,2326.517616 1112.472952,2327.379551 1111.947780,2323.589741 1115.573683,2321.076334 1117.505854,2324.691646 1115.840804,2328.430438 1119.398199,2330.085171 1119.923568,2333.863868 1122.901323,2334.718639 1123.401377,2339.886670 1120.573414,2342.225598"/>
    <poly id="114803526" type="forest" color="140,196,107" fill="1" layer="-3.00" shape="888.740166,2678.250532 892.497866,2679.908771 895.368816,2675.191191 898.328435,2677.035055 902.336972,2675.518012 902.040718,2669.753317 897.310077,2667.276861 893.615633,2673.169132 889.609376,2672.518144 887.687127,2676.118900 888.740166,2678.250532"/>
    <poly id="114803527" type="forest" color="140,196,107" fill="1" layer="-3.00" shape="786.452095,2736.397634 789.055423,2737.412213 789.792122,2740.605441 794.409245,2738.699117 795.089978,2734.341969 798.486508,2733.803272 799.560749,2729.453273 797.242092,2725.441906 793.226352,2727.359151 788.685123,2725.086355 786.814859,2727.465069 786.739160,2731.633076 781.585795,2730.349820 780.089039,2735.881812 775.905345,2736.005965 773.431662,2740.530684 778.352216,2744.000020 781.763069,2742.672170 782.651366,2737.518270 786.452095,2736.397634"/>
    <poly id="114805927" type="forest" color="140,196,107" fill="1" layer="-3.00" shape="1701.837661,1584.686129 1736.313055,1584.328139 1749.110375,1560.124404 1756.156260,1556.284251 1763.821915,1551.054548 1764.353903,1543.915173 1760.201991,1541.848893 1756.112381,1547.733406 1748.406812,1555.141592 1739.971938,1558.567161 1731.952750,1561.199833 1712.983642,1563.431800 1701.786374,1576.535412 1699.286042,1582.449072 1701.837661,1584.686129"/>
    <poly id="114805928" type="forest" color="140,196,107" fill="1" layer="-3.00" shape="1565.151348,1846.190194 1561.189112,1844.727915 1560.630600,1831.809257 1563.819933,1831.667467 1564.705380,1826.713748 1567.100153,1826.557425 1574.191330,1798.290803 1568.082255,1794.799055 1567.754049,1790.812670 1563.598702,1789.346859 1562.082043,1784.949591 1562.158286,1780.781593 1564.979491,1779.243271 1577.511636,1790.991179 1582.067772,1792.475452 1579.684647,1800.114653 1577.140939,1811.253208 1576.004146,1818.981923 1572.174386,1832.609707 1565.151348,1846.190194"/>
    <poly id="114805929" type="forest" color="140,196,107" fill="1" layer="-3.00" shape="1560.840938,1754.929496 1563.997580,1756.577167 1587.011852,1751.238882 1591.662585,1747.554845 1598.066770,1745.881968 1598.504175,1743.899782 1602.101574,1742.976074 1605.972393,1738.477253 1598.871548,1734.378050 1585.895599,1735.919565 1567.798597,1744.927925 1567.047534,1742.534852 1562.903022,1740.068586 1559.003273,1746.557097 1560.840938,1754.929496"/>
    <poly id="114805930" type="forest" color="140,196,107" fill="1" layer="-3.00" shape="1921.113106,1405.542036 1935.238436,1406.590704 1973.550062,1382.266548 2029.312469,1318.726174 2025.412041,1313.884724 2012.117496,1321.790295 2010.694895,1309.856356 1999.877221,1321.643300 1974.888083,1341.764549 1961.539065,1341.719578 1960.820799,1348.066115 1951.124413,1355.437492 1941.493791,1348.300583 1944.570425,1343.387136 1942.838797,1340.186606 1934.618690,1342.815318 1931.148402,1336.391899 1947.960464,1321.401586 1963.482216,1301.028561 1970.706065,1297.636663 2044.464709,1211.333955 2032.430483,1199.149456 2025.849934,1205.933092 2031.461394,1212.673864 2034.064033,1211.732141 2035.376522,1205.396529 2038.894362,1209.230298 2037.140604,1217.748127 2015.045913,1238.400487 2004.569047,1244.567775 1984.967988,1270.224852 1962.199083,1294.845411 1937.082906,1317.032514 1932.701255,1327.881472 1929.639311,1331.994670 1925.673125,1330.732207 1891.618174,1371.656720 1893.755467,1376.232240 1903.477236,1367.471436 1906.287950,1377.451740 1910.902609,1386.286600 1919.188322,1391.008321 1915.134956,1394.903199 1919.214020,1400.537258 1921.113106,1405.542036"/>