<?xml version="1.0" encoding="UTF-8"?>
<!-- generated on 2022-04-26 22:13:23.575133 by cutRoutes.py UNKNOWN
  options: ingolstadt_reduced.net.xml /home/momo/dateien/Studies/thesis/workspace/InTAS_reduced/scenario/routes/BusRoutes.flow.xml <doubleminus>routes-output routes_reduced/BusRoutes.flow.xml <doubleminus>orig-net ingolstadt.net.xml
-->
<routes xmlns:xsi="http://www.w3.org/2001/XMLSchema-instance" xsi:noNamespaceSchemaLocation="http://sumo.dlr.de/xsd/routes_file.xsd">
    <vType color="green" id="bus" vClass="bus"/>
    <flow begin="900.00" end="1800.00" id="N18_frequency1" period="900" type="bus">
        <route edges="31342066 29238183#0 29238184#0 51856492#0 29027839#0 29027839#2 31343367#0 29048562#0 145069303#0 145069303#1 145069303#2 145069303#4 -26973015 24983010#0 24983010#1 161678033#0 -32350852#4 -32350852#3 -32350852#1 145069366#1 145069366#3 24982688#0 24982688#0.12 24982688#2 24982688#3 145069294#0 32201042 32201044#0 32201044#1 32201044#2 233673423 28418763 -379723624#1 -379723624#0 -32923867#4 -32923867#3 -32923867#2 -32923867#1 -32923867#0 130996520 130996520.58 172519650 306396705 174321447 58295043 32923863#2 266607804#0 266607804#1 266607804#2 266607803#0 266607803#1 266607803#2 266607792#0"/>
    </flow>
    <flow begin="900.00" end="1800.00" id="N19_frequency1" period="900" type="bus">
        <route edges="29238015 29238044 80369244 80369263 29238181 29238182 29238183#0 29238184#0 51856492#0 29027839#0 29027839#2 31343367#0 29048562#0 145069303#0 145069303#1 145069303#2 145069303#4 -26973015 24983010#0 24983010#1 161678033#0 51857519#0 161678034#0 161678034#1 161678034#2 161678034#2.30 161678034#2.46 24970784#0 24977473#0 54154922#0 54154922#1 26071515#0 26071515#1 4324820 26471940#0 -164051438#2 -164051438#1 -164051438#0 -164051438#0.46 -164051438#0.62 -26471933 140834262#0 201953161#0 201953161#7 -115881043#10 -115881043#8 -115881043#7 -115881043#6 -115881043#5 -115881043#4 -115881043#2 -115881043#0 201953160#0 201953160#3 542630099 354967545#0.45 354967545#1 141058765#0 141058765#1 141058765#2 141058765#2.33 31624236#0 172700927#0 -48742425#2 -48742425#1 -48742425#0 23184252#0 23184252#1 201926265#0 201926265#1 201926265#2 201926265#3 201926265#4 201926265#5 -20314044#2 -20314044#1"/>
    </flow>
    <flow begin="1200.00" end="4800.00" id="N16_frequency1" period="3600" type="bus">
        <route edges="379514689 80369263 29238181 29238182 29238183#0 29238184#0 51856492#0 29027839#0 29027839#2 31343367#0 29048562#0 145069303#0 145069303#1 145069303#2 145069303#4 -26973015 24983010#0 24983010#1 161678033#0 -32350852#4 -32350852#3 -32350852#1 145069366#1 145069366#3 24982688#0 24982688#0.12 24982688#2 24982688#3 145069294#0 32201042 32201044#0 32201044#1 32201044#2 233673423 28418763 -379723624#1 -379723624#0 -32923867#4 -32923867#3 -32923867#2 -32923867#1 -32923867#0 130996520 130996520.58 172519650 306396705 174321447 58295043 32923863#2 266607804#0 266607804#1 266607804#2 266607803#0 266607803#1 266607803#2 266607792#0"/>
    </flow>
    <flow begin="3493.20" end="7093.20" id="N16R_frequency1" period="3600" type="bus">
        <route edges="-266607792#4 -266607803#2 -266607803#1 -266607803#0 -266607804#2 -266607804#1 -266607804#0 -32923863#4 -32923863#1 151167768#0 151167768#1 172515814#0 172515814#1 305390324 -39649533 32923867#1 32923867#1.96 32923867#2 32923867#3 32923867#4 379723624#0 379723624#1 130996518#0 -233673423 -32201044#2 -32201044#1 -32201044#0 -32201042 -145069294#1 -24982688#4 -24982688#2 -24982688#1 -24982688#1.52 -145069366#3 -145069366#2 32350852#0 32350852#3 32350852#4 -161678033#0 -24983010#2 -24983010#0 26973015 -145069303#4 -145069303#3 -145069303#1 -145069303#0 -32009683#1 -31343367#1 -29027839#2 -29027839#1 -51856492#2 -29238184#1 -145069300#1 -145069300#1.112 51856495#0 29238013 51856499 51856498 379514689"/>
    </flow>
    <flow begin="17881.31" end="70081.31" id="11R_frequency1" period="900" type="bus">
        <route edges="-266607792#4 -266607803#2 -266607803#1 -266607803#0 -266607804#2 -266607804#1 -266607804#0 -32923863#4 -32923863#1 151167768#0 151167768#1 172515814#0 172515814#1 305390324 -39649533 32923867#1 32923867#1.96 32923867#2 32923867#3 32923867#4 379723624#0 379723624#1 130996518#0 -233673423 -32201044#2 -32201044#1 -32201044#0 -32201042 -145069294#1 32201172 62798408 145069357 103671248 gneE176 145069272 -29119898 -32924041#3 -108310252 -108310253 -29458096 -51856495#2 -29458097#2 -32978638#3 -32978638#0 32021112#0 168702040#1 168702040#2 168702040#3 168702040#4 -315358253#3 -315358253#2 -315358253#1 -315358253#0 -315358248#1 -315358245 -202092675.36 -4942389#1 -4942389#0 -136436466 -315358251#1 -315358251#0 -315358242#2 -315358242#1 -315358242#0 -129379925 -129379918#1 -315358252#1"/>
    </flow>
    <flow begin="18181.31" end="48781.31" id="S6R" period="30600" type="bus">
        <route edges="-266607792#4 -266607803#2 -266607803#1 -266607803#0 -266607804#2 -266607804#1 -266607804#0 -32923863#4 -32923863#1 151167768#0 151167768#1 172515814#0 172515814#1 305390324 -39649533 32923867#1 32923867#1.96 32923867#2 32923867#3 32923867#4 379723624#0 379723624#1 130996518#0 -233673423 -32201044#2 -32201044#1 -32201044#0 -32201042 -145069294#1 -24982688#4 -24982688#2 -24982688#1 -24982688#1.52 -145069366#3 -145069366#2 32350852#0 32350852#3 32350852#4 51857519#0 161678034#0 161678034#1 161678034#2 161678034#2.30 161678034#2.46 24970784#0 164051410#0 164051410#1 32199969#0 32199969#2 32199969#5 32199989#0 32199989#1 323248156#0 266567301#1 64464420 24989982#0 -165520703#4 -24989986 -203127050 -165414587#0 203127020#0 200741048 248012814 29119850 29119850.70 30399662#0 30399662#1 54169280#0 54169280#1 54169280#2 54169280#3 54169280#4 54169280#6 386687232#0 -315358251#1 -315358251#0 -315358242#2 -315358242#1 -315358242#0 -129379925 -129379918#1 -315358252#1"/>
    </flow>
    <flow begin="18300.00" end="23400.00" id="9221_frequency1" period="5100" type="bus">
        <route edges="-51856493#1 -29238020#0 51856492#0 29027839#0 29027839#2 31343367#0 29048562#0 11014139#0 24991573 24991571 64464405 266567306 64464408 64464384#1 32009827 266567303 266567294#0 25797090#1 201444272#0 201444272#1 201444272#3 29027727#0 29027727#4 29027727#6 29027727#7 29027727#9 152077572#0 152077572#2 152077572#2.79 54858974 542727960 30399316#0"/>
    </flow>
    <flow begin="18445.96" end="48705.96" id="S1R" period="30300" type="bus">
        <route edges="20314044#1 20314044#2 -201926265#6 -201926265#4 -201926265#3 -201926265#2 -201926265#1 -201926265#0 -23184252#1 -23184252#0 48742425#0 48742425#1 48742425#2 32881076#0 37282369 354967544#0 354967544#1 354967544#2 4268816#0 4268816#1 -201953160#4 -201953160#1 -140834255#1 -140834262#1 -26471939#1 -26471938 26471932#0 164051398 203971379#0 203971379#1 -54154922#1 -54154922#0 -42745461#1 -42745461#0 -42745460 -28132014#2 -28132014#0 -116765457#1 -116765457#0 -137463475#1 137463477#0 25902677#0 137463478#0 137463478#1 137463478#2 137463478#3 29238188#0 29238188#1 29238188#3 152077572#0 152077572#2 152077572#2.79 54858974 4942408 54858973#0 54858973#0.62 54858973#1 54858973#2 29119849#0 29119849#1 29119850 29119850.70 30399662#0 30399662#1 54169280#0 54169280#1 54169280#2 54169280#3 54169280#4 54169280#6 386687232#0 -315358251#1 -315358251#0 -315358242#2 -315358242#1 -315358242#0 -129379925 -129379918#1 -315358252#1"/>
    </flow>
    <flow begin="18547.24" end="27547.24" id="S5" period="1800" type="bus">
        <route edges="-202070435#11 -202070435#8 -202070435#6.32 -202070435#6.65 -202070435#4 -202070435#1 -202070435#0 -201789798#1 -201789798#0 -201789799#2 -201789799#1 -201789799#0 201789797#0 201789797#1 gneE143 149045269#0 149045269#2 149045269#3 201789794#0 201789794#3 308849647 266507550 30320943 378466167 266507548 257907861 151167740 266507555 266507554 266507557#0 266507557#1 172368742 172368742.57 172368742.75 172368742.185 542650762 391208991 25626614#0 25626614#1 25626614#2 391029007 391029008#0 391029008#1 391029008#1.77 391029008#2 4942575#0 4942575#1 4942575#2 31342349#0 31342349#3 4942408 54858973#0 54858973#0.62 54858973#1 54858973#2 29119849#0 29119849#1 29119850 29119850.70 30399662#0 30399662#1 54169280#0 54169280#1 54169280#2 54169280#3 54169280#4 54169280#6 386687232#0 -315358251#1 -315358251#0 -315358242#2 -315358242#1 -315358242#0 -129379925 -129379918#1 -315358252#1"/>
    </flow>
    <flow begin="18556.25" end="24016.25" id="15R_frequency1" period="1800" type="bus">
        <route edges="315358252#0 129379918#0 129379925 315358242#0 315358242#1 315358242#2 315358242#3 315358251#1 136436466 386687235 42745545#0 42745545#2 42745545#3 42745545#4 42745545#5 42745545#5.128 42745545#6 28639688#0 28639688#1 28639688#3 24890429#0 24890429#1 24890429#2 -203127020#4 391606922 165414587#1 165520706 380273341 140684001 -380273343 -266565302 -24537982#4 -24537982#3 -24537982#2 -24537982#1 -31343367#1 -29027839#2 -29027839#1 -51856492#2 -29238184#1 -29238183#0 -29238182 -29238181 -80369263 -80369244 -29238016"/>
    </flow>
    <flow begin="18797.19" end="25097.19" id="30_frequency1" period="1800" type="bus">
        <route edges="205182378#4 205182378#5 205182378#6 205182378#7 205182378#8 205182378#10 205182378#12 205182378#13 205182378#14 205182378#15 -37282688#5 -37282688#4 -37282688#3 -37282688#1 29458100#0 -201278214#1 -29458645 -29458645.13 -29458645.28 131118468#0 131118468#0.16 131118468#1 131118468#3 131118468#4 305390335 172515813 201278215 305390324 -39649533 32923867#1 32923867#1.96 32923867#2 32923867#3 32923867#4 379723624#0 379723624#1 130996518#0 -233673423 -32201044#2 -32201044#1 -32201044#0 -32201042 -145069294#1 -24982688#4 -24982688#2 -24982688#1 -24982688#1.52 -145069366#3 -145069366#2 -28418764#2 -28418764#1 -28418764#0.88 -28418764#0.109 -542617943 -389831364 10425610#0 156923526#0 156923526#3 390282481 51856496#0 51856496#1 51856496#2 51856496#3 51856496#4 51856496#5 51856496#6 51856496#8 204388144#0 204388144#1 18909061#0 389831363#0 32061928#2 32061928#4 32061928#5 389840420#3 29458097#0 51856495#0 29238013 51856499 51856498 51856497 379514685 29238181 29238182 29238183#0 29238184#0 51856492#0 29027839#0 29027839#2 31343367#0 24537982#0 24537982#2 24537982#3 24537982#4 266565302 380273343 29238186 140684000#0 140684000#1 391606922 165414587#1 165520706 380273341 140684001 -233673425#1 -233673425#0 -266567307#1 -30404124 30417892 266567308#0 64464384#1 32009827 266567303 266567294#0 31342064#1 31342064#1.83 25902677#0 137463478#0 137463478#1 137463478#2 137463478#3 -274823622#10 -274823622#7 -274823622#3 -274823622#2 -274823622#1 -274823622#0 -274823622#0.68 -31342351#1 23009600#0 23009600#2 153220338#0"/>
    </flow>
    <flow begin="18974.90" end="49214.90" id="S2R" period="30240" type="bus">
        <route edges="51244813#1 51244813#4 51244813#6 51244813#7 51244813#8 40623117#0 391208988 33814393#0 33814393#1 33814393#2 174609517#0 38508400#1 172515811#0 172517198#0 305390324 -39649533 32923867#1 32923867#1.96 32923867#2 32923867#3 32923867#4 379723624#0 379723624#1 130996518#0 -233673423 -32201044#2 -32201044#1 -32201044#0 -32201042 -145069294#1 32201172 62798408 145069357 103671248 gneE176 145069272 -29119898 -32924041#3 -108310252 -108310253 -29458096 -51856495#2 -29458097#2 -32978638#3 -32978638#0 32021112#0 168702040#1 168702040#2 168702040#3 168702040#4 -315358253#3 -315358253#2 -315358253#1 -315358253#0 -315358248#1 -315358245 -202092675.36 -4942389#1 -4942389#0 -136436466 -315358251#1 -315358251#0 -315358242#2 -315358242#1 -315358242#0 -129379925 -129379918#1 -315358252#1"/>
    </flow>
    <flow begin="19244.25" end="70544.25" id="10_frequency1" period="900" type="bus">
        <route edges="-201238718#0 -315392062#4 -24693977#1 -24693977#0 -32999434#1 32999110#0 32999110#1 402600768#0 402600768#1 51857517#0 51857517#0.33 51857517#1 51857518#1 32978638#0 32978638#1 29458097#0 51856495#0 29458096 108239938 104236369 108310250 29119898 -145069272 gneE154 -103671248 -145069357 -62798408 -32201172 145069294#0 32201042 32201044#0 32201044#1 32201044#2 233673423 28418763 -379723624#1 -379723624#0 -32923867#4 -32923867#3 -32923867#2 -32923867#1 -32923867#0 130996520 130996520.58 172519650 306396705 174321447 58295043 32923863#2 266607804#0 266607804#1 266607804#2 266607803#0 266607803#1 266607803#2 266607792#0"/>
    </flow>
    <flow begin="19627.24" end="73627.24" id="70R" period="900" type="bus">
        <route edges="-202070435#11 -202070435#8 -202070435#6.32 -202070435#6.65 -202070435#4 -202070435#1 -202070435#0 -201789798#1 -201789798#0 -201789799#2 -201789799#1 -201789799#0 201789797#0 201789797#1 gneE143 149045269#0 149045269#2 149045269#3 -202070429#9 -202070429#6 -202070429#5 -202070429#4 -202070429#3 -202070429#2 -202070429#1 -202070429#0 151167728 26451152#0 202070427#0 202070427#1 202070427#2 33280103#0 33280103#1 33280103#2 33280103#3 33280103#4 33280103#4.68 4942575#0 4942575#1 4942575#2 31342349#0 31342349#3 4942408 54858973#0 54858973#0.62 54858973#1 54858973#2 29119849#0 29119849#1 29119850 29119850.70 30399662#0 30399662#1 54169280#0 54169280#1 54169280#2 54169280#3 54169280#4 54169280#6 386687232#0 386687242 23166741#0 23166741#2 23166741#5"/>
    </flow>
    <flow begin="19662.25" end="20382.25" id="50R_frequency1" period="720" type="bus">
        <route edges="653473569#3 653473569#5 164051413 124812857#0 201956811#0 36689751#0 -18909063#2 -18909063#0 389831363#0 32061928#2 32061928#4 32061928#5 389840420#3 29458097#0 145069300#1 -29238183#0 -29238182 -379514686"/>
    </flow>
    <flow begin="19681.86" end="71041.86" id="11_frequency1" period="900" type="bus">
        <route edges="315358252#0 129379918#0 129379925 315358242#0 315358242#1 315358242#2 315358242#3 315358251#1 136436466 4942389#0 4942389#1 202092675 315358245.27 315358248#0 315358253#0 315358253#1 315358253#2 315358253#3 402600768#0 402600768#1 51857517#0 51857517#0.33 51857517#1 51857518#1 32978638#0 32978638#1 29458097#0 51856495#0 29458096 108239938 104236369 108310250 29119898 -145069272 gneE154 -103671248 -145069357 -62798408 -32201172 145069294#0 32201042 32201044#0 32201044#1 32201044#2 233673423 28418763 -379723624#1 -379723624#0 -32923867#4 -32923867#3 -32923867#2 -32923867#1 -32923867#0 130996520 130996520.58 172519650 306396705 174321447 58295043 32923863#2 266607804#0 266607804#1 266607804#2 266607803#0 266607803#1 266607803#2 266607792#0"/>
    </flow>
    <flow begin="19682.11" end="71882.11" id="51R" period="1800" type="bus">
        <route edges="203971377#0 39704293#0 39704293#0.384 39704293#0.414 -201956816#6 -201956816#5 -201956816#4 -201956816#3 -201956816#2 -201956816#0 -201953163#2 -115881043#10 -115881043#8 -115881043#7 -115881043#6 -115881043#5 -115881043#4 -115881043#2 -115881043#0 201953160#0 201953160#3 201956818#1 201956818#2 201956818#5 164051398 203971379#0 203971379#1 -54154922#1 -54154922#0 -24977473#2 -24970784#3 -161678034#2 -161678034#2.33 -161678034#2.50 -161678034#1 -161678034#0 28119593 -24983010#2 -24983010#0 26973015 -145069303#4 -145069303#3 -145069303#1 -145069303#0 -32009683#1 -31343367#1 -29027839#2 -29027839#1 -51856492#2 -29238184#1 -145069300#1 -145069300#1.112 51856495#0 29238013 29238015"/>
    </flow>
    <flow begin="20132.00" end="72932.00" id="10R_frequency1" period="900" type="bus">
        <route edges="-266607792#4 -266607803#2 -266607803#1 -266607803#0 -266607804#2 -266607804#1 -266607804#0 -32923863#4 -32923863#1 151167768#0 151167768#1 172515814#0 172515814#1 305390324 -39649533 32923867#1 32923867#1.96 32923867#2 32923867#3 32923867#4 379723624#0 379723624#1 130996518#0 -233673423 -32201044#2 -32201044#1 -32201044#0 -32201042 -145069294#1 32201172 62798408 145069357 103671248 gneE176 145069272 -29119898 -32924041#3 -108310252 -108310253 -29458096 -51856495#2 -29458097#2 -32978638#3 -32978638#0 32021112#0 168702040#1 168702040#2 168702040#3 168702040#4 168702039#0 168702039#1 32999434#0 24693977#0 24693977#1 315392062#0 201238718#0"/>
    </flow>
    <flow begin="20148.66" end="76848.66" id="70" period="900" type="bus">
        <route edges="201201950#0 201201950#1 201201950#2 201201950#3 201201950#4 386687239#0 386687239#1 202092676#0 386687235 42745545#0 42745545#2 42745545#3 42745545#4 42745545#5 42745545#5.128 42745545#6 28639688#0 28639688#1 28639688#3 116687469#0 248012815#0 248012815#1 30399325 30399322#1.56 30399322#2 30399322#3.66 542635729 31342347 32203023#0 32203023#2 32203023#2.134 31342350#0 31342350#1 31342350#2 31342350#2.130 -33280103#5 -33280103#3 -33280103#2 -33280103#1 -33280103#0 33280102#0 33280102#1 33280102#2 33280102#3 33280102#5 31021475 202070430 202070429#0 202070429#1 202070429#2 202070429#3 202070429#4 202070429#5 202070429#6 202070429#7 201789794#0 201789794#3 308849647 266507550 -201789796#1 -201789796#0 -201880159#1 -201880159#0 25625974 171007004 202070435#0 202070435#1 202070435#2 202070435#5 202070435#5.37 202070435#5.70 202070435#9"/>
    </flow>
    <flow begin="20220.00" end="74220.00" id="20" period="900" type="bus">
        <route edges="-201789796#0 -201880159#1 -201880159#0 25625974 202070431 -201789799#2 -201789799#1 -201789799#0 201789797#0 201789797#1 gneE143 149045269#0 149045269#2 149045269#3 -202070429#9 -202070429#6 -202070429#5 -202070429#4 -202070429#3 -202070429#2 -202070429#1 -202070429#0 151167728 257907859#0 257907859#1 257907860#0 257907860#1.168 305390325#0 305390325#3 266567304#0 266567301#1 64464420 24989982#0 -165520703#4 -24989986 -203127050 -165414587#0 -140684000#1 -140684000#0 380273341 140684001 -380273343 -266565302 -24537982#4 -24537982#3 -24537982#2 -24537982#1 29048562#0 145069303#0 145069303#1 145069303#2 145069303#4 -26973015 24983010#0 24983010#1 161678033#0 -32350852#4 -32350852#3 -32350852#1 145069366#1 145069366#3 24982688#0 24982688#0.12 24982688#2 24982688#3 145069294#0 32201042 32201044#0 32201044#1 32201044#2 233673423 28418763 -379723624#1 -379723624#0 -32923867#4 -32923867#3 -32923867#2 -32923867#1 -32923867#0 130996520 130996520.58 172519650 356952270 54033673#0 54033673#0.28 54033673#2 54033673#3 29458645 29458645.65 29458645.81 37282738 103718186 37282688#2 37282688#4 37282688#5 23184252#0 23184252#1 201926265#0 201926265#1 201926265#2 201926265#3 201926265#4 201926265#5 -20314044#2 -20314044#1"/>
    </flow>
    <flow begin="20220.00" end="74220.00" id="58R" period="1800" type="bus">
        <route edges="-379514690 -51856498 -51856499 -29238013 -51856495#2 -29458097#2 -32978638#3 -32978638#0 32021112#0 168702040#1 168702040#2 168702040#3 168702040#4 168702039#0 168702039#1 32999434#0 24693977#0 24693977#1 315392062#0 -160314346#1 -160314346#0"/>
    </flow>
    <flow begin="20453.70" end="74453.70" id="44R" period="1800" type="bus">
        <route edges="-266607792#4 -266607803#2 -266607803#1 -266607803#0 -266607804#2 -266607804#1 -266607804#0 -32923863#4 -32923863#1 151167768#0 151167768#1 172515814#0 172515814#1 305390324 -39649533 32923867#1 32923867#1.96 32923867#2 32923867#3 32923867#4 379723624#0 379723624#1 130996518#0 -233673423 -32201044#2 -32201044#1 -32201044#0 -32201042 -145069294#1 -24982688#4 -24982688#2 -24982688#1 -24982688#1.52 -145069366#3 -145069366#2 32350852#0 32350852#3 32350852#4 -161678033#0 -24983010#2 -24983010#0 26973015 -145069303#4 -145069303#3 -145069303#1 -145069303#0 11014139#0 24991573 24991571 64464405 266567306 64464408 31342305 30404124 266567307#0 233673425#0 233673425#1 29238186 165520704 -24989986 -203127050 -165414587#0 203127020#0 200741048 248012814 29119850 29119850.70 30399662#0 30399662#1 54169280#0 54169280#1 54169280#2 54169280#3 54169280#4 54169280#6 386687232#0 -315358251#1 -315358251#0 -315358242#2 -315358242#1 -315358242#0 -129379925 -40888351#6 -40888351#2 -40888351#0 -201950250#2 -201950250#1 -201950250#0 -26677214#5"/>
    </flow>
    <flow begin="20473.52" end="74473.52" id="60R" period="900" type="bus">
        <route edges="233675413#7 139230366 27920078#0 27920078#1 201963535 104010354 124812857#0 201956811#0 36689751#0 -18909063#2 -18909063#0 389831363#0 32061928#2 32061928#4 32061928#5 389840420#3 29458097#0 51856495#0 29238013 29238015 29238044 80369244 80369263 29238181 29238182 29238183#0 29238184#0 51856492#0 29027839#0 29027839#2 31343367#0 24537982#0 24537982#2 24537982#3 24537982#4 266565302 380273343 29238186 140684000#0 140684000#1 391606922"/>
    </flow>
    <flow begin="20523.92" end="74523.92" id="44" period="1800" type="bus">
        <route edges="26677214#5 201950250#0 201950250#1 201950250#2 40888351#0 40888351#1 40888351#3 129379925 315358242#0 315358242#1 315358242#2 315358242#3 315358251#1 136436466 386687235 42745545#0 42745545#2 42745545#3 42745545#4 42745545#5 42745545#5.128 42745545#6 28639688#0 28639688#1 28639688#3 24890429#0 24890429#1 24890429#2 -203127020#4 391606922 165414587#1 165520706 380273341 140684001 -233673425#1 -233673425#0 -266567307#1 -30404124 30417892 64464397#0 64464432#2 -24991571 -24991573 -11014139#1 145069303#0 145069303#1 145069303#2 145069303#4 -26973015 24983010#0 24983010#1 161678033#0 -32350852#4 -32350852#3 -32350852#1 145069366#1 145069366#3 24982688#0 24982688#0.12 24982688#2 24982688#3 145069294#0 32201042 32201044#0 32201044#1 32201044#2 233673423 28418763 -379723624#1 -379723624#0 -32923867#4 -32923867#3 -32923867#2 -32923867#1 -32923867#0 130996520 130996520.58 172519650 306396705 174321447 58295043 32923863#2 266607804#0 266607804#1 266607804#2 266607803#0 266607803#1 266607803#2 266607792#0"/>
    </flow>
    <flow begin="20557.74" end="74557.74" id="30R" period="1800" type="bus">
        <route edges="-153220338#1 -23009600#2 -23009600#1 31342351#0 274823622#0 274823622#1 274823622#2 274823622#3 274823622#4 274823622#9 -137463478#3 -137463478#2 -137463478#1 -137463478#0 25796398#0 305390325#0 305390325#3 266567304#0 266567301#1 64464420 24989982#0 -165520703#4 -24989986 -203127050 -165414587#0 -140684000#1 -140684000#0 380273341 140684001 -380273343 -266565302 -24537982#4 -24537982#3 -24537982#2 -24537982#1 -31343367#1 -29027839#2 -29027839#1 -51856492#2 -29238184#1 -29238183#0 -29238182 -29238181 -356952269 -51856497 -51856498 -51856499 -29238013 -51856495#2 -29458097#2 -389840420#4 -389840420#2 -32061928#4 -32061928#3 -32061928#1 -18909061#1 -204388144#1 -204388144#0 -137685135 -51856496#7 -51856496#5 -51856496#4 -51856496#3 -51856496#2 -51856496#1 -51856496#0 -390282481 -156923526#3 -156923526#2 -10425610#2 389831364 542617943 28418764#0 28418764#0.126 28418764#0.141 28418764#2 145069366#1 145069366#3 24982688#0 24982688#0.12 24982688#2 24982688#3 145069294#0 32201042 32201044#0 32201044#1 32201044#2 233673423 28418763 -379723624#1 -379723624#0 -32923867#4 -32923867#3 -32923867#2 -32923867#1 -32923867#0 130996520 130996520.58 172519650 356952270 54033673#0 54033673#0.28 54033673#2 54033673#3 29458645 29458645.65 29458645.81 37282738 103718186 37282688#2 37282688#4 37282688#5 -205182378#15 -205182378#14 -205182378#13 -205182378#12 -205182378#11 -205182378#9 -205182378#7 -205182378#6 -205182378#5 -205182378#4"/>
    </flow>
    <flow begin="20657.08" end="74657.08" id="20R" period="900" type="bus">
        <route edges="20314044#1 20314044#2 -201926265#6 -201926265#4 -201926265#3 -201926265#2 -201926265#1 -201926265#0 -23184252#1 -23184252#0 -37282688#5 -37282688#4 -37282688#3 -37282688#1 29458100#0 -201278214#1 -29458645 -29458645.13 -29458645.28 131118468#0 131118468#0.16 131118468#1 131118468#3 131118468#4 305390335 172515813 201278215 305390324 -39649533 32923867#1 32923867#1.96 32923867#2 32923867#3 32923867#4 379723624#0 379723624#1 130996518#0 -233673423 -32201044#2 -32201044#1 -32201044#0 -32201042 -145069294#1 -24982688#4 -24982688#2 -24982688#1 -24982688#1.52 -145069366#3 -145069366#2 32350852#0 32350852#3 32350852#4 -161678033#0 -24983010#2 -24983010#0 26973015 -145069303#4 -145069303#3 -145069303#1 -145069303#0 -32009683#1 24537982#0 24537982#2 24537982#3 24537982#4 266565302 380273343 29238186 140684000#0 140684000#1 391606922 165414587#1 165520706 380273341 140684001 -233673425#1 -233673425#0 -266567307#1 -30404124 30417892 266567308#0 64464384#1 32009827 266567303 266567294#0 31342064#1 31342064#1.83 305495773#0 266507551 266507552#0 31021475 202070430 202070429#0 202070429#1 202070429#2 202070429#3 202070429#4 202070429#5 202070429#6 202070429#7 201789794#0 201789794#3 308849647 266507550 -201789796#1 -201789796#0"/>
    </flow>
    <flow begin="20700.00" end="67500.00" id="50_frequency1" period="1800" type="bus">
        <route edges="-379514686 -29458095 -51856497 -51856498 -51856499 -29238013 -51856495#2 -29458097#2 -389840420#4 -389840420#2 -32061928#4 -32061928#3 -32061928#1 18909063#0 18909063#1 -36689751#2 10425609#0 10425609#1 25149219#1 391891458#0 -653473569#5 -653473569#4"/>
    </flow>
    <flow begin="20700.00" end="71100.00" id="51" period="1800" type="bus">
        <route edges="29238015 29238044 80369244 80369263 29238181 29238182 29238183#0 29238184#0 51856492#0 29027839#0 29027839#2 31343367#0 29048562#0 145069303#0 145069303#1 145069303#2 145069303#4 -26973015 24983010#0 24983010#1 161678033#0 51857519#0 161678034#0 161678034#1 161678034#2 161678034#2.30 161678034#2.46 24970784#0 24977473#0 54154922#0 54154922#1 26071515#0 26071515#1 4324820 26471940#0 -164051438#2 -164051438#1 -164051438#0 -164051438#0.46 -164051438#0.62 -26471933 140834262#0 201953161#0 201953161#7 201953163#0 201953163#3 201956816#1 201956816#3 201956816#4 201956816#5 201956816#6 -39704293#3 -39704293#2.36 -39704293#2.66 -203971377#1"/>
    </flow>
    <flow begin="20700.00" end="72900.00" id="40" period="1800" type="bus">
        <route edges="379514685 29238181 29238182 29238183#0 29238184#0 51856492#0 29027839#0 29027839#2 31343367#0 24537982#0 24537982#2 24537982#3 24537982#4 266565302 380273343 29238186 140684000#0 140684000#1 391606922 165414587#1 165520706 380273341 140684001 -233673425#1 -233673425#0 -266567307#1 -30404124 30417892 266567308#0 64464384#1 32009827 266567303 266567294#0 31342064#1 31342064#1.83 305495773#0 266507551 266507552#0 27202149 202070427#0 202070427#1 202070427#2 33280103#0 33280103#1 33280103#2 33280103#3 33280103#4 33280103#4.68 97304242#0 97304242#2 97304242#4"/>
    </flow>
    <flow begin="20731.44" end="70831.44" id="22R" period="3600" type="bus">
        <route edges="32976752 28091398 327975022 327975022.30 327975022.62 39704919 28091397 542650138 266507547 -266507550 -308849647 -201789794#3 -201789794#2 -202070429#9 -202070429#6 -202070429#5 -202070429#4 -202070429#3 -202070429#2 -202070429#1 -202070429#0 151167728 257907859#0 257907859#1 257907860#0 257907860#1.168 305390325#0 305390325#3 266567304#0 266567301#1 64464420 24989982#0 -165520703#4 -24989986 -203127050 -165414587#0 -140684000#1 -140684000#0 380273341 140684001 -380273343 -266565302 -24537982#4 -24537982#3 -24537982#2 -24537982#1 -31343367#1 -29027839#2 -29027839#1 -51856492#2 29238020#0 -51856500 -398653115"/>
    </flow>
    <flow begin="20827.24" end="73027.24" id="21R" period="1800" type="bus">
        <route edges="-202070435#11 -202070435#8 -202070435#6.32 -202070435#6.65 -202070435#4 -202070435#1 -202070435#0 -201789798#1 -201789798#0 -201789799#2 -201789799#1 -201789799#0 -30482638#13 -30482638#11 -30482638#10 -30482638#9 -30482638#8 -30482638#3 -30482638#2 -201926266 -54154921#3 -54154921#2 -24977473#2 -24970784#3 -161678034#2 -161678034#2.33 -161678034#2.50 -161678034#1 -161678034#0 -51857519#1 -32350852#4 -32350852#3 -32350852#1 145069366#1 145069366#3 24982688#0 24982688#0.12 24982688#2 24982688#3 145069294#0 32201042 32201044#0 32201044#1 32201044#2 233673423 28418763 -379723624#1 -379723624#0 -32923867#4 -32923867#3 -32923867#2 -32923867#1 -32923867#0 130996520 130996520.58 172519650 356952270 54033673#0 54033673#0.28 54033673#2 54033673#3 29458645 29458645.65 29458645.81 37282738 103718186 37282688#2 37282688#4 37282688#5 23184252#0 23184252#1 389840423#0 389840423#1 201926269#1 201926269#2 201926269#3 -266887588#1 -266887588#0 -266887593#6 -266887593#3 -266887591 -141058757 111525330#0 350320331#0 266885723#0 161680739 27453586#0 gneE119"/>
    </flow>
    <flow begin="21000.00" end="24600.00" id="15_frequency1" period="900" type="bus">
        <route edges="-29238016 -51856499 -29238013 -51856495#2 145069300#1 29238184#0 51856492#0 29027839#0 29027839#2 31343367#0 24537982#0 24537982#2 24537982#3 24537982#4 266565302 380273343 29238186 165520704 -24989986 -203127050 -165414587#0 203127020#0 200741048 248012814 29119850 29119850.70 30399662#0 30399662#1 54169280#0 54169280#1 54169280#2 54169280#3 54169280#4 54169280#6 386687232#0 -315358251#1 -315358251#0 -315358242#2 -315358242#1 -315358242#0 -129379925 -129379918#1 -315358252#1"/>
    </flow>
    <flow begin="21060.00" end="75060.00" id="21" period="1800" type="bus">
        <route edges="380271165#0 161680736 28593900 266885722 266885721#0 161680744#0 161680744#1 266887586 266887587 266887592 141058757 266887585#0 266887593#0 266887593#4 266887588#0 266887588#1 -201926269#3 -201926269#2 -201926269#1 -201926269#0 -389840423#0 -23184252#1 -23184252#0 -37282688#5 -37282688#4 -37282688#3 -37282688#1 29458100#0 -201278214#1 -29458645 -29458645.13 -29458645.28 131118468#0 131118468#0.16 131118468#1 131118468#3 131118468#4 305390335 172515813 201278215 305390324 -39649533 32923867#1 32923867#1.96 32923867#2 32923867#3 32923867#4 379723624#0 379723624#1 130996518#0 -233673423 -32201044#2 -32201044#1 -32201044#0 -32201042 -145069294#1 -24982688#4 -24982688#2 -24982688#1 -24982688#1.52 -145069366#3 -145069366#2 32350852#0 32350852#3 32350852#4 51857519#0 161678034#0 161678034#1 161678034#2 161678034#2.30 161678034#2.46 24970784#0 24977473#0 54154921#0 54154921#3 201926266 30482638#0 30482638#3 30482638#4 30482638#9 30482638#10 30482638#11 30482638#12 201789799#0 201789799#1 201789799#2 201789798#0 201789798#1 202070435#0 202070435#1 202070435#2 202070435#5 202070435#5.37 202070435#5.70 202070435#9"/>
    </flow>
    <flow begin="21180.00" end="72180.00" id="52" period="1800" type="bus">