<?xml version="1.0" encoding="UTF-8"?>
<!-- generated on 2022-04-26 22:14:20.267957 by cutRoutes.py UNKNOWN
  options: ingolstadt_reduced.net.xml /home/momo/dateien/Studies/thesis/workspace/InTAS_reduced/scenario/routes/InTAS_014.rou.xml <doubleminus>routes-output routes_reduced/InTAS_014.rou.xml <doubleminus>orig-net ingolstadt.net.xml
-->
<routes xmlns:xsi="http://www.w3.org/2001/XMLSchema-instance" xsi:noNamespaceSchemaLocation="http://sumo.dlr.de/xsd/routes_file.xsd">
    <vType color="red" id="default_014" vClass="passenger"/>
    <vType color="blue" id="random_014" vClass="passenger"/>
    <vehicle arrivalPos="235.68" arrivalSpeed="0.00" depart="51871.00" departPos="14.16" id="h17827c1:3" type="default_014">
        <route edges="32200415#0 32200414#0 -51856492#2 -29238184#1 -145069300#1 -145069300#1.112 -29458097#2 -32978638#3 -32978638#0 32021112#0 51857516#1 -266565295#5 -266565295#4 -266565295#3 -266565295#2 -266565295#1 -266565295#0 -266565299 -24977590#1 -24977590#0 -233673425#1 -233673425#0 -266567307#1 -30404124 30417892 266567308#0 64464384#1 32009827 266567303 266567294#0 31342064#1 31342064#1.83 305495773#0 266507551 266507552#0 31021475 202070430 202070429#0 202070429#1 202070429#2 202070429#3 202070429#4 202070429#5 202070429#6 202070429#7 -149045269#4 -149045269#2 -149045269#1 gneE136 -201789797#1 -201789797#0 201789799#0 201789799#1 201789799#2 201789798#0 201789798#1 202070435#0 202070435#1 202070435#2 202070435#5 202070435#5.37 202070435#5.70 202070435#9"/>
    </vehicle>
    <vehicle arrivalPos="200.00" arrivalSpeed="0.00" depart="51872.00" departPos="19.94" id="h1234c2:1" type="default_014">
        <route edges="201956811#0 36689751#0 -18909063#2 -18909063#0 389831363#0 -25122830#2 145069347#0 103512671 -33102477 -33102476 -36689751#2 10425609#0 10425609#1 201963537#1 -164051413 -653473569#5 -653473569#4"/>
    </vehicle>
    <vehicle arrivalPos="51.05" arrivalSpeed="0.00" depart="51876.00" departPos="0.00" id="carIn76240:1" type="default_014">
        <route edges="380271165#0 161680736 28593900 266885722 266885721#0 161680744#0 161680744#1 266887586 266887587 266887592 141058757 266887585#0 266887593#0 20266190#0 20266190#2 72883541#1 72883541#2 20975939#0 20975939#1 20975946#0 -28269810#6 -28269810#4 -20975954#1 -20975943#1 -20975943#0 -20975948#0 23184317 29458101 27893434#1 27893434#2 -33779209#2 gneE19 38508400#1 172515811#0 306086241 61940356 172515808 24495188 61940355 102818925 102818928#1 10425610#0 156923526#0 145069335#0 145069335#2 145069339#0 145069394#0 145069284 32229741 32229742#1 32229742#3 32229742#4 32229742#5 145069311#0 145069316#0 145069316#1 145069313#2 -103512667#2 -103512667#1 -145069287#7 -145069287#7.50 32230348 145069342#0 35926319#1 -108310253 -29458096 -51856495#2 -29458097#2 -32978638#3 -32978638#0 32021112#0 168702040#1 168702040#2 168702040#3 168702040#4 -315358253#3 -315358253#2 -315358253#1 -315358253#0 -315358248#1 -315358245 -202092675.36 -4942389#1 -4942389#0 -136436466 -315358251#1 -315358251#0 -315358242#2 -315358242#1 -315358242#0 -129379925 -40888351#6 -26677416#7 26677539 -201950250#1 -201950250#0 -26677542#1"/>
    </vehicle>
    <vehicle arrivalPos="171.60" arrivalSpeed="0.00" depart="51879.00" departPos="5.52" id="h6127c2:1" type="default_014">
        <route edges="-40888351#6 -40888351#2 -40888351#0 -201950250#2 -201950250#1 -201950250#0 -26677214#5"/>
    </vehicle>
    <vehicle arrivalPos="226.92" arrivalSpeed="0.00" depart="51883.00" departPos="33.23" id="h8676c1:5" type="default_014">
        <route edges="103512667#0 103512667#1 103512667#2 32234776#0 145069351 145069313#0 -145069316#1 -145069316#0 32229973 -32229976 32084380 103396186 -103512667#1 -103512667#0 103512671 -33102477 -33102476 -36689751#2 10425609#0 10425609#1 201963537#1 -164051413 -653473569#5 25145013#0 -25145012#6"/>
    </vehicle>
    <vehicle arrivalPos="0.00" arrivalSpeed="0.00" depart="51883.00" departPos="4.75" id="h9043c1:3" type="default_014">
        <route edges="-25640093#6 -25640093#5 25596861#1 25596861#2 -25596855#1 153692837#2 gneE134 -481432711 -41139095 gneE143 25596993#0 25596993#5 149045845 -149045266 201789796#1 30320943 378466167 266507548 257907861 151167740 266507555 266507558 39704924 39704922 266507540 27392720 27392724 266507546 266507536 27550700 27454737 266507535 32930761 146973160 266885714 266885716 266885719 266885719.121"/>
    </vehicle>
    <vehicle arrivalPos="0.00" arrivalSpeed="0.00" depart="51883.00" departPos="0.00" id="carIn23701:1" type="default_014">
        <route edges="380271165#0 161680736 28593900 266885722 146973149"/>
    </vehicle>
    <vehicle arrivalPos="9.80" arrivalSpeed="0.00" depart="51884.00" departPos="79.72" id="randUni2811:1" type="random_014">
        <route edges="-20588641#0 -201926269#1 -201926269#0 -72883541#3 20975939#0 201926265#1 201926265#2 -20266189#1 -20266189#0 -72883541#1"/>
    </vehicle>
    <vehicle arrivalPos="0.00" arrivalSpeed="0.00" depart="51888.00" departPos="0.00" id="carIn70842:1" type="default_014">
        <route edges="380271165#0 161680736 28593900 266885722 266885721#0 161680744#0 161680744#1 266887586 266887587 266887592 141058757 266887585#0 266887593#0 20266190#0 20266190#2 72883541#1 20266189#0 20266189#1 -201926265#2 -201926265#1 -201926265#0 -23184252#1 -23184252#0 -37282688#5 -37282688#4 -37282688#3 -37282688#1 29458100#0 -201278214#1 -29458645 -29458645.13 -29458645.28 131118468#0 131118468#0.16 131118468#1 131118468#3 131118468#4 305390335 172515813 201278215 305390324 -39649533 32923867#1 32923867#1.96 32923867#2 32923867#3 32923867#4 379723624#0 379723624#1 130996518#0 -233673423 145069386#0 32124563#0 342077199 -145069366#2 32350852#0 32350852#3 32350852#4 51857519#0 161678034#0 161678034#1 161678034#2 161678034#2.30 161678034#2.46 24970784#0 164051410#0 164051410#1 32199969#0 32199969#2 32199969#5 32199989#0 32199989#1 323248156#0 25797090#1 201444272#0 201444272#1 24846867#0 25665370#0 -29238187#1 -29238187#0 -25797433#3 -25797433#2 -25797433#1 25638529 -32202763 gneE147 -71900674#2 25895864#0 25895864#1 26176223#0 26176223#1 -144657087#1 61326427#0 -274823622#0 -274823622#0.68 -31342351#1 23009600#0 23009600#2 153220338#0"/>
    </vehicle>
    <vehicle arrivalPos="3.57" arrivalSpeed="0.00" depart="51889.00" departPos="0.00" id="carIn11979:1" type="default_014">
        <route edges="380271165#0 161680736 28593900 266885722 266885721#0 161680744#0 161680744#1 266887586 266887587 266887592 141058757 266887585#0 266887593#0 266887593#4 266887588#0 266887588#1 201926268#0 266887589#0 589179144 266887590#0 266887590#1 4268816#0 4268816#1 201956818#1 201956818#2 201956818#5 164051398 203971379#0 203971379#1 -54154922#1 -54154922#0 -24977473#2 -24970784#3 -161678034#2 -161678034#2.33 -161678034#2.50 -161678034#1 -161678034#0 -51857519#1 -32350852#4 -32350852#3 -32350852#1 145069366#1 145069366#3 24982688#0 24982688#0.12 24982688#2 29002614 32201042 32201044#0 32201044#1 32201044#2 233673423 28418763 -379723624#1 -379723624#0 -32923867#4 -32923867#3 26471752#0 26471752#2 26471752#2.161"/>
    </vehicle>
    <vehicle arrivalPos="0.00" arrivalSpeed="0.00" depart="51890.00" departPos="0.00" id="carIn73479:1" type="default_014">
        <route edges="380271165#0 161680736 28593900 266885722 146973149 146973150#0 266885719 266885719.121"/>
    </vehicle>
    <vehicle arrivalPos="2.24" arrivalSpeed="0.00" depart="51895.00" departPos="6.43" id="randUni531:1" type="random_014">
        <route edges="-145069303#0 11014139#0 24991573 24991571 64464405 266567306 64464408 64464384#1 32009827 266567303 266567294#0 31342064#1 31342064#1.83 305495773#0 266507551 85564606 -115082348#5 -115082348#3 -25640093#7 -25640093#6 -25640093#5 -25640093#4 153692837#1 153692837#2 153692837#3 153692837#4 153692841#4 -25573260#1 -25573260#0 -30482638#10 -30482638#9"/>
    </vehicle>
    <vehicle arrivalPos="230.00" arrivalSpeed="0.00" depart="51896.00" departPos="0.00" id="carIn3392:1" type="default_014">
        <route edges="450072140 28593900 266885722 266885721#0 161680744#0 161680744#1 266887586 266887587 266887592 141058757 266887585#0 266887593#0 20266190#0 20266190#2 -72883541#0 30054829#0 201926265#5 201278209#0 201278209#2 -20405619"/>
    </vehicle>
    <vehicle arrivalPos="25.00" arrivalSpeed="0.00" depart="51898.00" departPos="0.00" id="carIn61393:1" type="default_014">
        <route edges="380271165#0 161680736 28593900 266885722 266885721#0 161680744#0 161680744#1 266887586 266887587 266887592 141058757 266887585#0 266887593#0 20266190#0 20266190#2 72883541#1 20266189#0 44959795 -44959795 -20266189#0 -72883541#1 -20266190#2 -20266190#1 -266887593#3 -266887591 -141058757 111525330#0 350320331#0 266885723#0 161680739 27453586#0 gneE119"/>
    </vehicle>
    <vehicle arrivalPos="127.84" arrivalSpeed="0.00" depart="51901.00" departPos="25.13" id="h13206c2:1" type="default_014">
        <route edges="-25640145#2 25640146 -25640375#2 25640145#0 25640145#2 25640145#3 25640145#4 32350901#2 201789797#0 -25597196#12 -25597196#11 -25597196#9 -153692837#3 -153692837#2 -153692837#1 -153692837#0 -202070429#4 -202070429#3 -202070429#2 -202070429#1 -202070429#0 151167728 257907859#0 257907859#1 -257907858#1 -115082348#5 -115082348#3 -115082348#2 -115082348#0 -24978651 28132014#0 28132014#1 42745460 42745461#0 42745461#1 54154922#0 54154922#1 26071515#0 26071515#1 4324820 26471940#0 -164051438#2 -164051438#1 -164051438#0 -164051438#0.46 -164051438#0.62 -26471933 140834262#0 140834255#0 115881043#0 115881043#1 -115881039"/>
    </vehicle>
    <vehicle arrivalPos="25.00" arrivalSpeed="0.00" depart="51905.46" departPos="0.00" id="carIn40136:1" type="default_014">
        <route edges="266885715 266885715.39 266885718#0 266885718#1 266885720 32930763 32930762 266507537 27454740 27454730 266507538 266507539 27392718 27392719 4058141 266507543 266507532 327975022 327975022.30 327975022.62 39704920 151167740 266507555 266507554 -28132852 26180725#1 -36291830 -201789796#1 -201789796#0 -201880159#1 -201880159#0 25625974 202070431 -201789799#2 -201789799#1 -201789799#0 -30482638#13 -30482638#11 -30482638#10 -30482638#9 -30482638#8 -30482638#3 -30482638#2 -201926266 -54154921#3 -54154921#2 54154922#0 54154922#1 26071515#0 26071515#1 4324820 164051399 201956817 33279254#1 556434727 542630099 354967545#0.45 354967545#1 -266887590#1 -266887590#0 -589179144 -266887589#2 -201926268#1 -266887588#1 -266887588#0 -266887593#6 -266887593#3 -266887591 -141058757 111525330#0 350320331#0 266885723#0 161680739 27453586#0 gneE119"/>
    </vehicle>
    <vehicle arrivalPos="25.00" arrivalSpeed="0.00" depart="51906.46" departPos="0.00" id="carIn37710:1" type="default_014">
        <route edges="266885715 266885715.39 266885718#0 266885718#1 266885720 32930763 32930762 266507537 27454740 27454730 266507538 266507539 27392718 27392719 4058141 266507543 266507532 327975022 327975022.30 327975022.62 39704920 151167740 266507555 266507554 -28132852 26180725#1 -36291830 -201789796#1 -201789796#0 -201880159#1 -201880159#0 25625974 202070431 -201789799#2 -201789799#1 -201789799#0 -30482638#13 -30482638#11 -30482638#10 -30482638#9 -30482638#8 -30482638#3 -30482638#2 -201926266 -54154921#3 -54154921#2 54154922#0 54154922#1 26071515#0 26071515#1 4324820 164051399 201956817 33279254#1 556434727 542630099 354967545#0.45 354967545#1 -266887590#1 -266887590#0 -589179144 -266887589#2 -201926268#1 -266887588#1 -266887588#0 -266887593#6 -266887593#3 -266887591 -141058757 111525330#0 350320331#0 266885723#0 161680739 27453586#0 gneE119"/>
    </vehicle>
    <vehicle arrivalPos="200.00" arrivalSpeed="0.00" depart="51908.00" departPos="82.87" id="h10111c1:3" type="default_014">
        <route edges="-25797315#2 25797433#2 25797433#3 137463478#3 29238188#0 29238188#1 29238188#3 152077572#0 152077572#2 152077572#2.79 54858974 4942408 54858973#0 54858973#0.62 54858973#1 54858973#2 29119849#0 29119849#1 29119850 29119850.70 30399662#0 30399662#1 54169280#0 54169280#1 54169280#2 54169280#3 54169280#4 54169280#6 386687232#0 386687242 23166741#0 23166741#2 23166741#5"/>
    </vehicle>
    <vehicle arrivalPos="0.00" arrivalSpeed="0.00" depart="51910.09" departPos="0.00" id="carIn26116:1" type="default_014">
        <route edges="39530041 266507542 -28132852 26180725#1 -36291830 30320943 378466167 266507548 257907861 151167740 266507555 266507558 39704924 39704922"/>
    </vehicle>
    <vehicle arrivalPos="25.00" arrivalSpeed="0.00" depart="51911.78" departPos="64.82" id="h12043c1:1" type="default_014">
        <route edges="-29205273#0 -23009600#2 -23009600#1 31342350#0 144657087#0 144657087#1 -26176223#1 -26176223#0 -25895864#1 -25895864#0 -71900674#1 -71900674#0 -33280103#0 33280102#0 26180729 175761129#0 175761129#1 175761129#3 -25640093#3 -25640093#2 -25640093#1 149045269#2 149045269#3 201789794#0 201789794#3 308849647 266507550 30320943 23622426 -195073412#2 -195073412#1 -195073412#0 195073415 266507536 27550700 27454737 266507535 32930761 146973160 266885714 146973156#0 450076615#0 161680739 27453586#0 gneE119"/>
    </vehicle>
    <vehicle arrivalPos="200.00" arrivalSpeed="0.00" depart="51912.46" departPos="0.00" id="carIn65630:1" type="default_014">
        <route edges="266885715 266885715.39 266885718#0 266885718#1 266885720 32930763 32930762 266507537 27454740 27454730 266507538 266507539 27392718 27392719 4058141 266507543 266507532 327975022 327975022.30 327975022.62 39704920 151167740 266507555 266507554 -28132852 26180725#1 -36291830 -201789796#1 -201789796#0 -201880159#1 -201880159#0 25625974 202070431 -201789799#2 -201789799#1 -201789799#0 -30482638#13 -30482638#11 -30482638#10 -30482638#9 -30482638#8 -30482638#3 -30482638#2 -201926266 -54154921#3 -54154921#2 54154922#0 54154922#1 26071515#0 26071515#1 4324820 164051399 201956817 33279254#1 556434727 542630099 354967545#0.45 354967545#1 141058765#0 141058765#1 141058765#2 141058765#2.33 31624236#0 172700927#0 -48742425#2 -48742425#1 -48742425#0 -205182378#15 -205182378#14 -205182378#13 -20975943#2 -20975943#1 -20975943#0 -20975948#0 23184317 29458101 27893434#1 27893434#2 -33779209#2 gneE19 38508400#1 172515811#0 306086241 61940356 172515808 24495188 61940355 201969576#0 201969576#1 201969576#2 201969576#5 201969576#6 201969576#7 29497467 124812856#0 124812856#1 201956821#0 201956821#1.68 201963537#1 -164051413 -653473569#5 -653473569#4"/>
    </vehicle>
    <vehicle arrivalPos="0.09" arrivalSpeed="0.00" depart="51913.00" departPos="80.42" id="randUni24976:1" type="random_014">
        <route edges="151167747.23 39704923 266507553 48395120#0 48395120#1"/>
    </vehicle>
    <vehicle arrivalPos="0.00" arrivalSpeed="0.00" depart="51914.44" departPos="0.00" id="carIn33657:1" type="default_014">
        <route edges="32976752 28091398 327975022 327975022.30 327975022.62 39704919 28091397 542650138 266507547 201789795 -26180725#2 28132852 549032836 39704924 39704922 266507540 27392720 27392724 266507546 266507536 27550700 27454737 266507535 32930761 146973160 266885714 266885716 266885719 266885719.121"/>
    </vehicle>
    <vehicle arrivalPos="0.00" arrivalSpeed="0.00" depart="51915.46" departPos="0.00" id="carIn60240:1" type="default_014">
        <route edges="146973183#0 450072140 28593900 266885722 266885721#0 161680744#0 161680744#1 266887586 266887587 266887592 141058757 266887585#0 266887593#0 266887593#4 266887588#0 266887588#1 201926268#0 266887589#0 589179144 266887590#0 266887590#1 4268816#0 4268816#1 201956818#1 201956818#2 201956818#5 164051398 25188982#0 25192758 203971378#0 37480109 90587320 90587320.64 201926266 30482638#0 -25595895#1 -25595895#0 -25596855#3 -25596855#1 -153692837#1 -153692837#0 28132836#0 -175761127#15 -175761127#14 -175761127#13 -175761127#11 -175761127#9 -175761127#7 -175761127#1 -26180725#2 28132852 39704923 266507553 48395120#0 48395120#1 32976755 327975020 327975024 327975024.20 327975024.51 327975019 146973189 195073416 195073418#0 195073418#1 266507539 27392718 27392719"/>
    </vehicle>
    <vehicle arrivalPos="0.00" arrivalSpeed="0.00" depart="51916.00" departPos="0.00" id="carIn83376:1" type="default_014">
        <route edges="380271165#0 161680736 28593900 266885722 266885721#0 161680744#0 161680744#1 266887586 266887587 266887592 141058757 266887585#0 266887593#0 20266190#0 20266190#2 72883541#1 20266189#0 20266189#1 -201926265#2 -201926265#1 -201926265#0 -23184252#1 -23184252#0 -37282688#5 -37282688#4 -37282688#3 -37282688#1 29458100#0 -201278214#1 -29458645 -29458645.13 -29458645.28 131118468#0 131118468#0.16 131118468#1 131118468#3 131118468#4 305390335 172515813 201278215 305390324 -39649533 32923867#1 32923867#1.96 32923867#2 32923867#3 32923867#4 379723624#0 379723624#1 130996518#0 -233673423 145069386#0 32124563#0 342077199 -145069366#2 32350852#0 32350852#3 32350852#4 51857519#0 161678034#0 161678034#1 161678034#2 161678034#2.30 161678034#2.46 24970784#0 164051410#0 164051410#1 32199969#0 32199969#2 32199969#5 32199989#0 32199989#1 323248156#0 25797090#1 201444272#0 201444272#1 24846867#0 25665370#0 -29238187#1 -29238187#0 -25797433#3 -25797433#2 -25797433#1 25638529 -32202763 gneE147 -71900674#2 25895864#0 25895864#1 26176223#0 26176223#1 -144657087#1 61326427#0 -274823622#0 -274823622#0.68 -31342351#1 23009600#0 23009600#2 153220338#0"/>
    </vehicle>
    <vehicle arrivalPos="0.00" arrivalSpeed="0.00" depart="51917.09" departPos="0.00" id="carIn127205:1" type="default_014">
        <route edges="39530041 266507542 -28132852 26180725#1 175761127#0 175761127#2 25895945#2 202070429#7 -149045269#4 -149045269#2 -149045269#1 gneE136 -25596851#6 -25596851#5 -25596851#4 -151167720#1 -151167720#0 201789799#2 201789798#0 201789798#1 202070435#0 202070435#1 202070435#2 202070435#5 202070435#5.37 202070435#5.70 202070435#9"/>
    </vehicle>
    <vehicle arrivalPos="0.00" arrivalSpeed="0.00" depart="51920.00" departPos="0.00" id="carIn46272:1" type="default_014">
        <route edges="380271165#0 161680736 28593900 266885722 266885721#0 161680744#0 161680744#1 266887586 266887587 266887592 141058757 266887585#0 266887593#0 20266190#0 20266190#2 72883541#1 72883541#2 20975939#0 20975939#1 20975946#0 -28269810#6 -28269810#4 -20975954#1 -20975943#1 -20975943#0 -20975948#0 23184317 29458101 27893434#1 27893434#2 -33779209#2 gneE19 38508400#1 172515811#0 306086241 61940356 172515808 24495188 61940355 201969576#0 201969576#1 201969576#2 201969576#5 201969576#6 201969576#7 29497467 124812856#0 124812856#1 201956821#0 201956821#1.68 201963537#1 -164051413 -653473569#5 -653473569#4"/>
    </vehicle>
    <vehicle arrivalPos="0.00" arrivalSpeed="0.00" depart="51920.00" departPos="0.00" id="carIn46797:1" type="default_014">
        <route edges="380271165#0 161680736 28593900 266885722 266885721#0 161680744#0 161680744#1 266887586 266887587 266887592 141058757 266887585#0 266887593#0 20266190#0 20266190#2 -72883541#0 30054829#0 30054829#1 -20405617#1 -20405617#0 -20588624#0 -201926265#1 -201926265#0 -20266198 201278210#9 -205182378#11 -28269810#6 -28269810#4 -28269810#3 -28269810#2 -28269810#1 -163586462 -4819338#4 -4819338#3 -4819338#1 -4819338#0 266607803#0 266607803#1 266607803#2 266607792#0"/>
    </vehicle>
    <vehicle arrivalPos="188.45" arrivalSpeed="0.00" depart="51921.00" departPos="0.00" id="carIn89834:1" type="default_014">
        <route edges="266507542 -28132852 26180725#1 -36291830 30320943 23622426 -195073412#2 -195073412#1 -195073412#0 195073415 266507536 27550700 27454737 266507535 32930761 146973160 266885714 146973156#0 39649528 161680744#1 266887586 266887587 266887592 141058757 266887585#0 266887593#0 20266190#0 -20266191 -201926269#0 -389840423#0 -20266198 201278210#9 205182378#12 205182378#13 20975942#0 20975942#1 20975952#0 20975952#1 20975952#2 -28269810#1 -163586462 -4819338#4 -39443315#2"/>
    </vehicle>
    <vehicle arrivalPos="0.00" arrivalSpeed="0.00" depart="51921.46" departPos="0.00" id="carIn62138:1" type="default_014">
        <route edges="266885715 266885715.39 266885718#0 266885718#1 266885720 32930763 32930762 266507537 27454740 27454730 266507538 266507539 27392718 27392719 4058141 266507543 266507532 327975022 327975022.30 327975022.62 39704920 151167740 266507555 266507554 266507557#0 266507557#1 172368742 172368742.57 172368742.75 172368742.185 542650762 391029010"/>
    </vehicle>
    <vehicle arrivalPos="25.00" arrivalSpeed="0.00" depart="51922.00" departPos="16.23" id="h8976c2:1" type="default_014">
        <route edges="-25597196#1 -28132014#2 -28132014#0 -116765457#1 -116765457#0 -137463475#1 137463477#0 305495773#0 266507551 266507552#0 31021475 202070430 202070429#0 202070429#1 202070429#2 202070429#3 202070429#4 202070429#5 202070429#6 202070429#7 201789794#0 201789794#3 308849647 266507550 30320943 23622426 -195073412#2 -195073412#1 -195073412#0 195073415 266507536 27550700 27454737 266507535 32930761 146973160 266885714 146973156#0 450076615#0 161680739 27453586#0 gneE119"/>
    </vehicle>
    <vehicle arrivalPos="19.28" arrivalSpeed="0.00" depart="51922.00" departPos="1.02" id="randUni19757:1" type="random_014">
        <route edges="-20405617#4 -20588622"/>
    </vehicle>
    <vehicle arrivalPos="0.00" arrivalSpeed="0.00" depart="51922.44" departPos="0.00" id="carIn78270:1" type="default_014">
        <route edges="32976752 28091398 327975022 327975022.30 327975022.62 39704920 151167740 266507555 266507554 -28132852 26180725#1 175761127#0 175761127#2 25895945#2 202070429#7 -149045269#4 -149045269#2 -149045269#1 gneE136 -201789797#1 -25597196#12 -25573246#1 -25573246#0 30482638#12 201789799#0 201789799#1 201789799#2 201789798#0 201789798#1 202070435#0 202070435#1 202070435#2 202070435#5 202070435#5.37 202070435#5.70 202070435#9"/>
    </vehicle>
    <vehicle arrivalPos="87.47" arrivalSpeed="0.00" depart="51924.00" departPos="0.00" id="carIn104092:1" type="default_014">
        <route edges="380271165#0 161680736 28593900 266885722 266885721#0 161680744#0 161680744#1 266887586 266887587 266887592 141058757 266887585#0 266887593#0 20266190#0 20266190#2 72883541#1 72883541#2 20975939#0 20975939#1 20975946#0 -28269810#6 -28269810#4 -20975954#1 -20975943#1 -20975943#0 -20975948#0 23184317 29458101 27893434#1 27893434#2 -33779209#2 gneE19 38508400#1 172515811#0 306086241 61940356 172515808 24495188 61940355 102818925 102818928#1 10425610#0 156923526#0 145069335#0 145069335#2 145069339#0 145069394#0 145069284 32229741 32229742#1 32229742#3 32229742#4 32229742#5 145069311#0 145069316#0 145069316#1 145069313#2 -103512667#2 -103512667#1 -145069287#7 -145069287#7.50 32230348 145069342#0 35926319#1 -108310253 -29458096 -51856495#2 -29458097#2 -32978638#3 -32978638#0 32021112#0 168702040#1 168702040#2 168702040#3 168702040#4 -315358253#3 -315358253#2 -315358253#1 -315358253#0 -315358248#1 -315358245 -202092675.36 -4942389#1 -4942389#0 -136436466 -315358251#1 -315358251#0 -315358242#2 4942376 25665446#1 -53898183 47316356 54169280#3"/>
    </vehicle>
    <vehicle arrivalPos="379.30" arrivalSpeed="0.00" depart="51924.00" departPos="0.00" id="carIn131940:1" type="default_014">
        <route edges="450072140 28593900 266885722 266885721#0 161680744#0 161680744#1 266887586 266887587 266887592 141058757 266887585#0 266887593#0 266887593#4 266887588#0 266887588#1 58622231#0 58622231#3 115881041#0 115881041#1 115881041#4 461125446#0 461125445 208010459#1 -201953160#1 -140834255#1 -140834262#1 -26471939#1 -26471938 26471932#0 164051398 25188982#0 25192758 90587322#0 -10425611#1 -10425611#0 -10425611#0.35 -164051429#1 -164051429#0 -161678034#2 -161678034#2.33 -161678034#2.50 -161678034#1 -161678034#0 28119593 -24983010#2 -24983010#0 26973015 -145069303#4 -145069303#3 -145069303#1 -145069303#0 -32009683#1 -24972185#9 -24972185#8 -24972185#8.373 -24972185#1 -389840420#4 -389840420#2 24599188#0 24599188#0.75 24599188#0.94 172488482#0 -32124744 -201089423#2 -201089423#1 24693977#0 24693977#1 315392062#0 201238718#0"/>
    </vehicle>
    <vehicle arrivalPos="25.00" arrivalSpeed="0.00" depart="51925.00" departPos="24.67" id="h12525c1:3" type="default_014">
        <route edges="25626605#2 25626605#4 25625950 391029007 391029008#0 391029008#1 391029008#1.77 391029008#2 -33280103#5 -33280103#3 -33280103#2 -33280103#1 -33280103#0 33280102#0 26180729 175761129#0 25573267#1 202070429#1 25596861#0 25596861#1 25596861#2 25596855#2 -25597196#4 -25380714#1 -201926266 -54154921#3 -54154921#2 54154922#0 54154922#1 26071515#0 26071515#1 4324820 164051399 201956817 33279254#1 556434727 542630099 354967545#0.45 354967545#1 -266887590#1 -266887590#0 -589179144 -266887589#2 -201926268#1 -266887588#1 -266887588#0 -266887593#6 -266887593#3 -266887591 -141058757 111525330#0 350320331#0 266885723#0 161680739 27453586#0 gneE119"/>
    </vehicle>
    <vehicle arrivalPos="0.00" arrivalSpeed="0.00" depart="51925.00" departPos="0.00" id="carIn401:1" type="default_014">
        <route edges="380271165#0 161680736 28593900 266885722 266885721#0 161680744#0 161680744#1 266887586 266887587 266887592 141058757 266887585#0 266887593#0 20266190#0 20266190#2 72883541#1 72883541#2 20975939#0 20975939#1 20975946#0 -28269810#6 -28269810#4 -20975954#1 -20975943#1 -20975943#0 -20975948#0 23184317 29458101 27893434#1 27893434#2 -33779209#2 gneE19 38508400#1 172515811#0 306086241 61940356 172515808 24495188 61940355 201969576#0 201969576#1 201969576#2 201969576#5 201969576#6 201969576#7 29497467 124812856#0 124812856#1 201956821#0 201956821#1.68 201963537#1 -164051413 -653473569#5 -653473569#4"/>
    </vehicle>
    <vehicle arrivalPos="0.00" arrivalSpeed="0.00" depart="51925.00" departPos="0.00" id="carIn10230:1" type="default_014">
        <route edges="380271165#0 161680736 28593900 266885722 266885721#0 161680744#0 161680744#1 266887586 266887587 266887592 141058757 266887585#0 266887593#0 20266190#0 20266190#2 72883541#1 72883541#2 20975939#0 20975939#1 20975946#0 -28269810#6 -28269810#4 -20975954#1 -20975943#1 -20975943#0 -20975948#0 23184317 29458101 27893434#1 27893434#2 -33779209#2 gneE19 38508400#1 172515811#0 306086241 61940356 172515808 24495188 61940355 201969576#0 201969576#1 201969576#2 201969576#5 201969576#6 201969576#7 29497467 124812856#0 124812856#1 201956821#0 201956821#1.68 201963537#1 -164051413 -653473569#5 -653473569#4"/>
    </vehicle>
    <vehicle arrivalPos="0.00" arrivalSpeed="0.00" depart="51926.00" departPos="29.19" id="h6540c2:1" type="default_014">
        <route edges="201950247#3 201950247#4 201950247#5 201950247#6 201950247#7 201950247#8 315358242#3 315358251#1 136436466 386687235 42745545#0 42745545#2 42745545#3 42745545#4 42745545#5 42745545#5.128 42745545#6 28639688#0 28639688#1 28639688#3 116687469#0 248012815#0 248012815#1 30399325 30399322#1.56 30399322#2 30399322#3.66 542635729 31342347 32203023#0 32203023#2 32203023#2.134 31342350#0 31342350#1 31342350#2 31342350#2.130 391208990 391029009#0 391029009#0.69 391029009#1 391029009#1.157 41425835 41425835.214 41425835.236 151167747 151167747.23 549032836 39704924 39704922 266507540 27392720 27392724 266507546 266507536 27550700 27454737 266507535 32930761 146973160 266885714 266885716 266885719 266885719.121"/>
    </vehicle>
    <vehicle arrivalPos="23.70" arrivalSpeed="0.00" depart="51926.00" departPos="0.00" id="carIn121086:1" type="default_014">
        <route edges="380271165#0 161680736 28593900 266885722 266885721#0 161680744#0 161680744#1 266887586 266887587 266887592 141058757 266887585#0 266887593#0 266887593#4 266887588#0 266887588#1 58622231#0 58622231#3 115881041#0 115881041#1 115881041#4 461125446#0 461125445 208010459#1 -201953160#1 -140834255#1 -140834262#1 -26471939#1 -26471938 26471932#0 164051398 203971379#0 203971379#1 -54154922#1 -54154922#0 -24977473#2 164051410#0 164051410#1 32199969#0 32199969#2 32199969#5 32199989#0 32199989#1 323248156#0 25797090#1 201444272#0 201444272#1 201444272#3 29027727#0 29027727#4 25665374 29238188#1 29238188#3 152077572#0 152077572#2 152077572#2.79 54858974 542727960 30399316#0"/>
    </vehicle>
    <vehicle arrivalPos="0.00" arrivalSpeed="0.00" depart="51926.44" departPos="0.00" id="carIn36442:1" type="default_014">
        <route edges="32976752 28091398 327975022 327975022.30 327975022.62 39704919 28091397 542650138 266507547 201789795 -26180725#2 28132852 549032836 39704924 39704922 266507540 27392720 27392724 266507546 266507536 27550700 27454737 266507535 32930761 146973160 266885714 266885716 266885719 266885719.121"/>
    </vehicle>
    <vehicle arrivalPos="0.00" arrivalSpeed="0.00" depart="51927.00" departPos="0.00" id="carIn103076:1" type="default_014">
        <route edges="380271165#0 161680736 28593900 266885722 146973149 146973150#0 266885719 266885719.121"/>
    </vehicle>
    <vehicle arrivalPos="0.00" arrivalSpeed="0.00" depart="51928.00" departPos="0.00" id="carIn96481:1" type="default_014">
        <route edges="380271165#0 161680736 28593900 266885722 266885721#0 161680744#0 161680744#1 266887586 266887587 266887592 141058757 266887585#0 266887593#0 20266190#0 20266190#2 72883541#1 72883541#2 20975939#0 20975939#1 20975946#0 -28269810#6 -28269810#4 -20975954#1 -20975943#1 -20975943#0 -20975948#0 23184317 29458101 27893434#1 27893434#2 -33779209#2 gneE19 38508400#1 172515811#0 306086241 61940356 172515808 24495188 61940355 201969576#0 201969576#1 201969576#2 201969576#5 201969576#6 201969576#7 29497467 124812856#0 124812856#1 201956821#0 201956821#1.68 201963537#1 -164051413 -653473569#5 -653473569#4"/>
    </vehicle>
    <vehicle arrivalPos="140.46" arrivalSpeed="0.00" depart="51928.46" departPos="0.00" id="carIn23266:1" type="default_014">