<?xml version="1.0" encoding="UTF-8"?>
<!-- generated on 2022-04-26 22:14:04.541817 by cutRoutes.py UNKNOWN
  options: ingolstadt_reduced.net.xml /home/momo/dateien/Studies/thesis/workspace/InTAS_reduced/scenario/routes/InTAS_010.rou.xml <doubleminus>routes-output routes_reduced/InTAS_010.rou.xml <doubleminus>orig-net ingolstadt.net.xml
-->
<routes xmlns:xsi="http://www.w3.org/2001/XMLSchema-instance" xsi:noNamespaceSchemaLocation="http://sumo.dlr.de/xsd/routes_file.xsd">
    <vType color="red" id="default_010" vClass="passenger"/>
    <vType color="blue" id="random_010" vClass="passenger"/>
    <vehicle arrivalPos="0.00" arrivalSpeed="0.00" depart="40856.00" departPos="0.00" id="carIn129047:1" type="default_010">
        <route edges="380271165#0 161680736 28593900 266885722 266885721#0 161680744#0 161680744#1 266887586 266887587 266887592 141058757 266887585#0 266887593#0 266887593#4 266887588#0 266887588#1 -201926269#3 -201926269#2 -201926269#1 -201926269#0 -389840423#0 -23184252#1 -23184252#0 -37282688#5 -37282688#4 -37282688#3 -37282688#1 29458100#0 -201278214#1 -29458645 -29458645.13 -29458645.28 131118468#0 131118468#0.16 131118468#1 131118468#3 131118468#4 305390335 172515813 201278215 305390333 172515812#0 306086241 61940356 172515808 24495188 61940355 201969576#0 201969576#1 201969576#2 201969576#5 201969576#6 201969576#7 29497467 124812856#0 124812856#1 201956821#0 201956821#1.68 201963537#1 -164051413 -653473569#5 25145013#0 -25145012#6"/>
    </vehicle>
    <vehicle arrivalPos="200.00" arrivalSpeed="0.00" depart="40858.00" departPos="0.00" id="carIn82962:1" type="default_010">
        <route edges="380271165#0 161680736 28593900 266885722 266885721#0 161680744#0 161680744#1 266887586 266887587 266887592 141058757 266887585#0 266887593#0 266887593#4 266887588#0 266887588#1 -201926269#3 -201926269#2 -201926269#1 -201926269#0 -389840423#0 -23184252#1 -23184252#0 -37282688#5 -37282688#4 -37282688#3 -37282688#1 29458100#0 -201278214#1 -29458645 -29458645.13 -29458645.28 131118468#0 131118468#0.16 131118468#1 131118468#3 131118468#4 305390335 172515813 201278215 305390333 172515812#0 306086241 61940356 172515808 24495188 61940355 201969576#0 201969576#1 201969576#2 201969576#5 201969576#6 201969576#7 29497467 124812856#0 124812856#1 201956821#0 201956821#1.68 201963537#1 -164051413 -653473569#5 25145013#0 -25145012#6"/>
    </vehicle>
    <vehicle arrivalPos="0.00" arrivalSpeed="0.00" depart="40859.00" departPos="0.00" id="carIn50042:1" type="default_010">
        <route edges="380271165#0 161680736 28593900 266885722 146973149 146973150#0 266885719 266885719.121"/>
    </vehicle>
    <vehicle arrivalPos="230.00" arrivalSpeed="0.00" depart="40860.00" departPos="0.00" id="carIn37386:1" type="default_010">
        <route edges="380271165#0 161680736 28593900 266885722 266885721#0 161680744#0 161680744#1 266887586 266887587 266887592 141058757 266887585#0 266887593#0 20266190#0 20266190#2 72883541#1 20266189#0 20266189#1 201926265#3 589179136 -20405617#0 -201278210#5 -201278210#4"/>
    </vehicle>
    <vehicle arrivalPos="2.94" arrivalSpeed="0.00" depart="40862.00" departPos="22.55" id="randUni16015:1" type="random_010">
        <route edges="-24982688#2 145069278#0 103687353 32200983#0 32200983#3 24982688#0 24982688#0.12 24982688#2 29002614 32201042 32201044#0 145069336#0 145069336#1 145069336#2 145069280#0 -145069391 145069286#0 32229741 32229742#1 32229742#3 32229742#4 32229742#5 145069311#0 145069316#0 145069316#1 145069313#2 -103512667#2 -103512667#1 -145069287#7 -145069287#7.50 32230348 145069342#0 35926319#1 -108310253 168434696 32259258 29027840 77912237 32200414#0 29027839#0 29027839#2 31343367#0 24537982#0 24537982#2 24537982#3 24537982#4 266565302 380273343 29238186 165520704 -24989986 165520706 380273341"/>
    </vehicle>
    <vehicle arrivalPos="0.00" arrivalSpeed="0.00" depart="40863.00" departPos="134.56" id="h12284c1:1" type="default_010">
        <route edges="-26180725#2 28132852 39704923 266507553 39704918 542650138 266507547 -201789796#1 -201789796#0 -201880159#1 -201880159#0 25625974 202070431 -201789799#2 -201789799#1 -201789799#0 -30482638#13 -30482638#11 -30482638#10 -30482638#9 -30482638#8 -30482638#3 -30482638#2 -201926266 -54154921#3 -54154921#2 54154922#0 54154922#1 26071515#0 26071515#1 4324820 164051399 201956817 33279254#1 556434727 542630099 354967545#0.45 354967545#1 -266887590#1 -266887590#0 -589179144 -266887589#2 -201926268#1 -266887588#1 -266887588#0 -266887593#6 -266887593#3 -266887591 -141058757 111525330#0 350320331#0 266885723#0 161680732 146973150#0 266885719 266885719.121"/>
    </vehicle>
    <vehicle arrivalPos="19.37" arrivalSpeed="0.00" depart="40863.00" departPos="0.00" id="carIn22747:1" type="default_010">
        <route edges="380271165#0 161680736 28593900 266885722 266885721#0 161680744#0 161680744#1 266887586 266887587 266887592 141058757 266887585#0 266887593#0 266887593#4 266887588#0 266887588#1 201926268#0 266887589#0 118004640#0 461125446#0 461125445 208010459#1 -201953160#1 -140834255#1 -140834262#1 -26471939#1 -26471938 26471932#0 164051398 203971379#0 203971379#1 -54154922#1 -54154922#0 -42745461#1 -42745461#0 -42745460 -28132014#2 -28132014#0 24978651 115082348#0 115082348#1 -25640093#7 -25640093#6 -25640093#5 -25640093#4 -153692837#0 28132836#0 -175761127#15 -175761127#14 -175761127#13 28132813 -25597372 -25640093#1 149045269#2"/>
    </vehicle>
    <vehicle arrivalPos="0.00" arrivalSpeed="0.00" depart="40866.00" departPos="5.52" id="h10158c1:3" type="default_010">
        <route edges="-25797433#3 -25797433#2 -25797433#1 25638529 -32202763 gneE147 -71900674#2 -71900674#1 -71900674#0 -33280103#0 33280102#0 26180729 175761129#0 175761129#1 202070429#4 202070429#5 202070429#6 202070429#7 201789794#0 201789794#3 308849647 266507550 30320943 378466167 266507548 257907861 151167740 266507555 266507558 39704924 39704922"/>
    </vehicle>
    <vehicle arrivalPos="200.00" arrivalSpeed="0.00" depart="40866.00" departPos="51.53" id="h10294c2:1" type="default_010">
        <route edges="-32202927#2 -32202927#1 -32202927#0 -25638527 -25796375#2 -25796375#1 33280102#3 33280102#5 -257907858#1 -115082348#5 -115082348#3 -115082348#2 -115082348#0 -24978651 28132014#0 28132014#1 42745460 42745461#0 42745461#1 54154922#0 54154922#1 26071515#0 26071515#1 4324820 164051399 201956817 33279254#1 556434727 -201953160#4 -208010459#1 -461125445 -461125446#2 -115881041#4 -115881041#3 -115881041#0 -58622231#5 -58622231#2 -201926269#3 -201926269#2 -201926269#1 20266191 -20266190#1 -266887593#3 -266887591 -141058757 111525330#0 350320331#0 266885723#0 161680732 146973150#0"/>
    </vehicle>
    <vehicle arrivalPos="0.00" arrivalSpeed="0.00" depart="40866.00" departPos="0.00" id="carIn27697:1" type="default_010">
        <route edges="380271165#0 161680736 28593900 266885722 266885721#0 161680744#0 161680744#1 266887586 266887587 266887592 141058757 266887585#0 266887593#0 20266190#0 -20266191 -201926269#0 -389840423#0 -23184252#1 -23184252#0 -37282688#5 -37282688#4 -37282688#3 -37282688#1 29458100#0 -201278214#1 -29458645 -29458645.13 -29458645.28 131118468#0 131118468#0.16 131118468#1 131118468#3 131118468#4 305390335 172515813 201278215 305390333 172515812#0 306086241 61940356 172515808 24495188 61940355 201969576#0 201969576#1 201969576#2 201969576#5 201969576#6 201969576#7 29497467 124812856#0 124812856#1 201956821#0 201956821#1.68 201963537#1 -164051413 -653473569#5 25145013#0 -25145012#6"/>
    </vehicle>
    <vehicle arrivalPos="0.00" arrivalSpeed="0.00" depart="40867.00" departPos="0.75" id="h1035c1:3" type="default_010">
        <route edges="204388144#1 18909061#0 389831363#0 32061928#2 32061928#4 32061928#5 389840420#3 24972185#0 24972185#2 24972185#2.111 24972185#9 29048562#0 11014139#0 24991573 24991571 64464405 266567306 64464408 64464384#1 32009827 266567303 266567294#0 31342064#1 31342064#1.83 305495773#0 266507551 266507552#0 31021475 202070430 202070429#0 202070429#1 202070429#2 202070429#3 202070429#4 202070429#5 202070429#6 202070429#7 201789794#0 201789794#3 308849647 266507550 30320943 23622426 -195073412#2 -195073412#1 -195073412#0 195073415 266507536 27550700 27454737 266507535 32930761 146973160 266885714 266885716 266885719 266885719.121"/>
    </vehicle>
    <vehicle arrivalPos="0.00" arrivalSpeed="0.00" depart="40869.00" departPos="0.00" id="carIn62721:1" type="default_010">
        <route edges="380271165#0 161680736 28593900 266885722 146973149 146973150#0 266885719 266885719.121"/>
    </vehicle>
    <vehicle arrivalPos="0.00" arrivalSpeed="0.00" depart="40869.00" departPos="0.00" id="carIn126815:1" type="default_010">
        <route edges="380271165#0 161680736 28593900 266885722 266885721#0 161680744#0 161680744#1 266887586 266887587 266887592 141058757 266887585#0 266887593#0 266887593#4 266887588#0 266887588#1 -201926269#3 -201926269#2 -201926269#1 -201926269#0 -389840423#0 -23184252#1 -23184252#0 -37282688#5 -37282688#4 -37282688#3 -37282688#1 29458100#0 -201278214#1 -29458645 -29458645.13 -29458645.28 131118468#0 131118468#0.16 131118468#1 131118468#3 131118468#4 305390335 172515813 201278215 305390333 172515812#0 306086241 61940356 172515808 24495188 61940355 201969576#0 201969576#1 201969576#2 201969576#5 201969576#6 201969576#7 29497467 124812856#0 124812856#1 201956821#0 201956821#1.68 201963537#1 -164051413 -653473569#5 25145013#0 -25145012#6"/>
    </vehicle>
    <vehicle arrivalPos="11.24" arrivalSpeed="0.00" depart="40869.00" departPos="0.00" id="carIn132204:1" type="default_010">
        <route edges="380271165#0 161680736 28593900 266885722 266885721#0 161680744#0 161680744#1 266887586 266887587 266887592 141058757 266887585#0 266887593#0 266887593#4 266887588#0 266887588#1 201926268#0 266887589#0 589179144 266887590#0 266887590#1 4268816#0 4268816#1 201956818#1 201956818#2 201956818#5 164051398 203971379#0 203971379#1 -54154922#1 -54154922#0 -42745461#1 -42745461#0 -42745460 -28132014#2 -28132014#0 -116765457#1 -116765457#0 -137463475#1 137463477#0 305390325#0 305390325#3 266567304#0 266567301#1 64464420 25955089 64464430 32009826#0 32009826#1 31342305 30404124 266567307#0 233673425#0 233673425#1 29238186 165520704 165520703#0"/>
    </vehicle>
    <vehicle arrivalPos="0.00" arrivalSpeed="0.00" depart="40870.00" departPos="0.00" id="carIn78055:1" type="default_010">
        <route edges="380271165#0 161680736 28593900 266885722 266885721#0 161680744#0 161680744#1 266887586 266887587 266887592 141058757 266887585#0 266887593#0 20266190#0 -20266191 201926269#1 20588641#0 20588641#1 -48742425#1 -48742425#0 -37282688#5 -37282688#4 -37282688#3 20975950#0 -168245119#2 23184317 29458101 27893434#1 27893434#2 -33779209#2 gneE19 38508400#1 172515811#0 306086241 61940356 172515808 24495188 61940355 201969576#0 201969576#1 201969576#2 201969576#5 201969576#6 201969576#7 29497467 124812856#0 124812856#1 201956821#0 201956821#1.68 201963537#1 -164051413 -653473569#5 -653473569#4"/>
    </vehicle>
    <vehicle arrivalPos="230.00" arrivalSpeed="0.00" depart="40874.00" departPos="106.53" id="h7170c1:1" type="default_010">
        <route edges="315358252#0 129379918#0 129379925 315358242#0 315358242#1 315358242#2 315358242#3 315358251#1 136436466 4942389#0 4942389#1 202092675 315358245.27 315358248#0 315358253#0 315358253#1 315358253#2 315358253#3 402600768#0 402600768#1 51857517#0 51857517#0.33 51857517#1 51857518#1 32978638#0 32978638#1 -389840420#4 -389840420#2 -32061928#4 -32061928#3 -32061928#1 -18909061#1 -204388144#1 -204388144#0 -137685135 -51856496#7 -51856496#5 -51856496#4 -51856496#3 -51856496#2 -51856496#1 -51856496#0 -390282481 -156923526#3 -156923526#2 -10425610#2 -102818928#1 -102818928#0 -102818928#0.78 -61940355 -24495188 -29458641 -61940356 29458640#0 172517196 -38508400#1 gneE20 33779209#1 174321447 58295043 32923863#2 266607804#0 266607804#1 266607804#2 266607803#0 266607803#1 266607803#2 266607792#0"/>
    </vehicle>
    <vehicle arrivalPos="0.00" arrivalSpeed="0.00" depart="40874.00" departPos="0.00" id="carIn110692:1" type="default_010">
        <route edges="380271165#0 161680736 28593900 266885722 266885721#0 161680744#0 161680744#1 266887586 266887587 266887592 141058757 266887585#0 266887593#0 20266190#0 -20266191 201926269#1 20588641#0 20588641#1 -48742425#1 -48742425#0 -37282688#5 -37282688#4 -37282688#3 20975950#0 -168245119#2 23184317 29458101 27893434#1 27893434#2 -33779209#2 gneE19 38508400#1 172515811#0 306086241 61940356 172515808 24495188 61940355 102818925 102818928#1 10425610#0 156923526#0 156923526#3 390282481 51856496#0 51856496#1 51856496#2 51856496#3 51856496#4 51856496#5 51856496#6 51856496#8 204388144#0 204388144#1 18909061#0 389831363#0 32061928#2 32061928#4 32061928#5 389840420#3 -32978638#3 -32978638#0 32021112#0 51857516#1 -266565295#5 -266565295#4 -266565295#3 -148050451#2 -148050452#0 148050455#1 148050455#2 28639688#0 28639688#1 28639688#3 116687469#0 248012815#0 248012815#1 30399325 30399322#1.56 30399322#2 30399322#3.66 542635729 31342347 32203023#0 32203023#2 32203023#2.134 31342350#0 31342350#1 31342350#2 31342350#2.130 391208990 -391208989 -391029007 -25626614#2 -25626614#1 -25626614#0 -391208991 391029010"/>
    </vehicle>
    <vehicle arrivalPos="0.00" arrivalSpeed="0.00" depart="40874.00" departPos="0.00" id="carIn116472:1" type="default_010">
        <route edges="380271165#0 161680736 28593900 266885722 266885721#0 161680744#0 161680744#1 266887586 266887587 266887592 141058757 266887585#0 266887593#0 266887593#4 266887588#0 266887588#1 201926268#0 266887589#0 118004640#0 461125446#0 461125445 208010459#1 -201953160#1 -140834255#1 -140834262#1 -26471939#1 -26471938 26471932#0 164051398 203971379#0 203971379#1 -54154922#1 -54154922#0 -42745461#1 -42745461#0 -42745460 -28132014#2 -28132014#0 -116765457#1 -116765457#0 -137463475#1 137463477#0 305390325#0 305390325#3 266567304#0 266567301#1 64464420 25955089 64464430 32009826#0 32009826#1 31342305 30404124 266567307#0 233673425#0 233673425#1 24977590#0 24977590#1 266565299 266565295#0 266565295#1 266565295#2 266565295#3 266565295#4 266565295#5 32999435 32124637#0 32124637#1 168702040#1 168702040#2 168702040#3 168702040#4 -315358253#3 -315358253#2 -315358253#1 -315358253#0 -315358248#1 -315358245 -202092675.36 -4942389#1 -4942389#0 -136436466 -315358251#1 -315358251#0 -315358242#2 -315358242#1 -315358242#0 -129379925 -129379918#1 -315358252#1"/>
    </vehicle>
    <vehicle arrivalPos="77.20" arrivalSpeed="0.00" depart="40877.00" departPos="62.22" id="randUni33130:1" type="random_010">
        <route edges="25380714#0 -25597196#3 -25597196#2 -25597196#1 42745460 42745461#0 42745461#1 54154922#0 54154922#1 26071515#0 26071515#1 4324820 164051399 201956817 33279254#1 556434727 542630099 354967545#0.45 354967545#1 -266887590#1 -266887590#0 -589179144 118004640#0 -115881041#4 -115881041#3 115881041#1"/>
    </vehicle>
    <vehicle arrivalPos="67.15" arrivalSpeed="0.00" depart="40887.00" departPos="0.00" id="carIn46385:1" type="default_010">
        <route edges="380271165#0 161680736 28593900 266885722 266885721#0 161680744#0 161680744#1 266887586 266887587 266887592 141058757 266887585#0 266887593#0 266887593#4 266887588#0 266887588#1 201926268#0 266887589#0 589179144 266887590#0 266887590#1 4268816#0 4268816#1 201956818#1 201956818#2 201956818#5 164051398 203971379#0 203971379#1 -54154922#1 -54154922#0 -24977473#2 164051410#0 164051410#1 32199969#0 32199969#2 32199969#5 32199989#0 32199989#1 323248156#0 266567301#1 64464420 25955089 64464430 32009826#0 32009826#1 31342305 30404124 266567307#0 233673425#0 233673425#1 24977590#0 24977590#1 266565299 266565295#0 266565295#1"/>
    </vehicle>
    <vehicle arrivalPos="87.64" arrivalSpeed="0.00" depart="40888.00" departPos="70.70" id="h2182c1:1" type="default_010">
        <route edges="-22716549#6 -201089423#1 -32999434#1 32999110#0 32999110#1 -315358253#3 -315358253#2 -315358253#1 -315358253#0 -315358248#1 -315358245 -202092675.36 -4942389#1 -4942389#0 -136436466 -315358251#1 -315358251#0 -315358242#2 -315358242#1 -315358242#0 -129379925 -129379918#1 -315358252#1"/>
    </vehicle>
    <vehicle arrivalPos="0.00" arrivalSpeed="0.00" depart="40889.00" departPos="0.00" id="carIn67605:1" type="default_010">
        <route edges="380271165#0 161680736 28593900 266885722 266885721#0 161680744#0 161680744#1 266887586 266887587 266887592 141058757 266887585#0 266887593#0 266887593#4 266887588#0 266887588#1 -201926269#3 -201926269#2 -201926269#1 -201926269#0 -389840423#0 -23184252#1 -23184252#0 -37282688#5 -37282688#4 -37282688#3 -37282688#1 29458100#0 -201278214#1 -29458645 -29458645.13 -29458645.28 131118468#0 131118468#0.16 131118468#1 131118468#3 131118468#4 305390335 172515813 201278215 305390333 172515812#0 306086241 61940356 172515808 24495188 61940355 201969576#0 201969576#1 201969576#2 201969576#5 201969576#6 201969576#7 29497467 124812856#0 124812856#1 201956810 25149001#0 25149001#1"/>
    </vehicle>
    <vehicle arrivalPos="0.00" arrivalSpeed="0.00" depart="40891.00" departPos="0.00" id="carIn7558:1" type="default_010">
        <route edges="380271165#0 161680736 28593900 266885722 146973149 146973150#0 266885719 266885719.121"/>
    </vehicle>
    <vehicle arrivalPos="102.60" arrivalSpeed="0.00" depart="40892.00" departPos="33.23" id="randUni29713:1" type="random_010">
        <route edges="266567306 64464408 64464384#1 32009827 266567303 24971737#0 24971737#3 -32199989#1 -32199989#0 -32199969#5 -32199969#4 23009002#0 28132014#0 28132014#1 42745460 42745461#0 42745461#1 54154922#0 54154922#1 26071515#0 26071515#1 4324820 164051399 201956817 33279254#1 556434727 542630099 354967545#0.45 354967545#1 141058765#0 141058765#1 141058765#2 141058765#2.33 31624236#0 172700927#0 -48742425#2 -48742425#1 -48742425#0 -205182378#15 -205182378#14 -205182378#13 -20975943#2 20975954#1 -28269810#3 -28269810#2 -28269810#1 -163586462 -4819338#4 -4819338#3 -4819338#1 -4819338#0 266607803#0 266607803#1 266607803#2 266607792#0"/>
    </vehicle>
    <vehicle arrivalPos="0.00" arrivalSpeed="0.00" depart="40892.09" departPos="0.00" id="carIn17536:1" type="default_010">
        <route edges="39530041 266507542 -28132852 26180725#1 -36291830 30320943 378466167 266507548 32976755 327975020 327975024 327975024.20 327975024.51 327975019 28132017"/>
    </vehicle>
    <vehicle arrivalPos="230.00" arrivalSpeed="0.00" depart="40893.00" departPos="0.00" id="carIn74198:1" type="default_010">
        <route edges="380271165#0 161680736 28593900 266885722 266885721#0 161680744#0 161680744#1 266887586 266887587 266887592 141058757 266887585#0 266887593#0 20266190#0 20266190#2 72883541#1 20266189#0 20266189#1 201926265#3 589179136 -20405617#0 -201278210#5 -201278210#4"/>
    </vehicle>
    <vehicle arrivalPos="0.00" arrivalSpeed="0.00" depart="40893.46" departPos="0.00" id="carIn1032:1" type="default_010">
        <route edges="266885715 266885715.39 266885718#0 266885718#1 266885720 32930763 32930762 266507537 27454740 27454730 266507538 266507539 27392718 27392719 4058141 266507543 266507532 327975022 327975022.30 327975022.62 39704919 28091397 542650138 266507547 -201789796#1 -201789796#0 -201880159#1 25596851#0 25596851#1 25596851#2 25596851#3 25596851#4 25596851#5 25596851#6 -201789797#1 -25597196#12 -25597196#11 -25573260#2 -153692841#4 -153692841#3 -153692841#2 25595895#1 -30482638#2 -201926266 -54154921#3 -54154921#2 54154922#0 54154922#1 26071515#0 26071515#1 4324820 164051399 201956817 33279254#1 556434727 542630099 354967545#0.45 354967545#1 141058765#0 141058765#1 141058765#2 141058765#2.33 31624236#0 172700927#0 -48742425#2 -20588641#4 -20588641#0 -201926269#1 20266191 -20266190#1 -266887593#3 -266887591 -141058757 111525330#0 350320331#0 266885723#0 161680732 146973150#0 266885719 266885719.121"/>
    </vehicle>
    <vehicle arrivalPos="23.27" arrivalSpeed="0.00" depart="40896.00" departPos="0.00" id="carIn9507:1" type="default_010">
        <route edges="380271165#0 161680736 28593900 266885722 266885721#0 161680744#0 161680744#1 266887586 266887587 266887592 141058757 266887585#0 266887593#0 266887593#4 266887588#0 266887588#1 201926268#0 266887589#0 589179144 266887590#0 266887590#1 4268816#0 4268816#1 201956818#1 201956818#2 201956818#5 164051398 203971379#0 203971379#1 -54154922#1 -54154922#0 -42745461#1 -42745461#0 -42745460 25597196#0 25597196#2 25597196#3 25597196#4 25597196#5 25595931 153692841#3 153692841#4 -25573260#1 -25573260#0 25640157#0 25640157#1 25640157#2"/>
    </vehicle>
    <vehicle arrivalPos="0.00" arrivalSpeed="0.00" depart="40896.00" departPos="0.00" id="carIn79572:1" type="default_010">
        <route edges="380271165#0 161680736 28593900 266885722 146973149 146973150#0 266885719 266885719.121"/>
    </vehicle>
    <vehicle arrivalPos="51.27" arrivalSpeed="0.00" depart="40899.00" departPos="0.00" id="carIn105780:1" type="default_010">
        <route edges="380271165#0 161680736 28593900 266885722 266885721#0 161680744#0 161680744#1 266887586 266887587 266887592 141058757 266887585#0 266887593#0 266887593#4 266887588#0 266887588#1 201926268#0 266887589#0 589179144 266887590#0 266887590#1 4268816#0 4268816#1 201956818#1 201956818#2 201956818#5 164051398 203971379#0 203971379#1 -54154922#1 -54154922#0 -42745461#1 -42745461#0 -42745460 -28132014#2 -28132014#0 -116765457#1 -116765457#0 -137463475#1 137463477#0 305390325#0 25797295#0 201444272#1 201444272#3 29027727#0 29027727#4 29027727#6 29027727#7 29027727#9 152077572#0 152077572#2 152077572#2.79 54858974 542727960 30399316#0"/>
    </vehicle>
    <vehicle arrivalPos="200.00" arrivalSpeed="0.00" depart="40902.00" departPos="0.00" id="carIn40106:1" type="default_010">
        <route edges="380271165#0 161680736 28593900 266885722 266885721#0 161680744#0 161680744#1 266887586 266887587 266887592 141058757 266887585#0 266887593#0 20266190#0 20266190#2 72883541#1 20266189#0 20266189#1 201926265#3 589179136 -20405617#0 20588624#1 20588624#2 205182378#7 205182378#8 -28269810#6 -28269810#4 -28269810#3 -28269810#2 -28269810#1 -163586462 -4819338#4 -4819338#3 -4819338#1 -4819338#0 -266607804#2 -266607804#1 -266607804#0 -32923863#4 -32923863#1 151167768#0 151167768#1 172515814#0 172515814#1 305390333 172515812#0 306086241 61940356 172515808 24495188 61940355 201969576#0 201969576#1 201969576#2 201969576#5 201969576#6 201969576#7 29497467 124812856#0 124812856#1 201956821#0 201956821#1.68 201963537#1 104010475#0 104012170 104010460#1 202070434#0 202070434#2 -139230366 -233675413#8"/>
    </vehicle>
    <vehicle arrivalPos="45.03" arrivalSpeed="0.00" depart="40904.00" departPos="0.00" id="carIn34380:1" type="default_010">
        <route edges="380271165#0 161680736 28593900 266885722 266885721#0 161680744#0 161680744#1 266887586 266887587 266887592 141058757 266887585#0 266887593#0 266887593#4 266887588#0 266887588#1 201926268#0 266887589#0 589179144 266887590#0 266887590#1 4268816#0 4268816#1 201956818#1 201956818#2 201956818#5 164051398 203971379#0 203971379#1 -54154922#1 -54154922#0 -42745461#1 -42745461#0 -42745460 -28132014#2 -28132014#0 -116765457#1 -116765457#0 -137463475#1 137463477#0 305390325#0 305390325#3 266567304#0 266567301#1 64464420 25955089 64464430 64464399#0 64464399#1 64464432#0 64464432#1 64464432#2 -24991571 -24991573 -11014139#1 145069303#0 145069303#1 145069303#2 gneE230"/>
    </vehicle>
    <vehicle arrivalPos="0.00" arrivalSpeed="0.00" depart="40906.09" departPos="0.00" id="carIn118506:1" type="default_010">
        <route edges="39530041 266507542 39704923 266507553 39704918 542650138 266507547 -201789796#1 -201789796#0 -201880159#1 -201880159#0 25625974 202070431 -201789799#2 -201789799#1 -201789799#0 -30482638#13 -30482638#11 -30482638#10 -30482638#9 -30482638#8 -30482638#3 -30482638#2 -201926266 -90587320 -37480109 -90587323 -10425611#1 -10425611#0 -10425611#0.35 4324827#0 203971381#0 203971381#1 4324820 164051399 201956817 33279254#1 556434727 542630099 354967545#0.45 354967545#1 -266887590#1 -266887590#0 -589179144 -266887589#2 -201926268#1 -266887588#1 -266887588#0 -266887593#6 -266887593#3 -266887591 -141058757 111525330#0 350320331#0 266885723#0 161680732 146973150#0 266885719 266885719.121"/>
    </vehicle>
    <vehicle arrivalPos="3.73" arrivalSpeed="0.00" depart="40909.00" departPos="0.00" id="h22034c2:3" type="default_010">
        <route edges="39704922 266507540 27392720 27392724 23622443 195073412#0 195073412#1 195073412#2 195073413 327975020 327975024 327975024.20 327975024.51 327975019 146973189 195073416 195073418#0 195073418#1 266507539 27392718 27392719 4058141 266507543 266507532 327975022 327975022.30 327975022.62 39704919 28091397 542650138 266507547 -201789796#1 -201789796#0 -201880159#1 -201880159#0 25625974 202070431 -201789799#2 -201789799#1 -201789799#0 -30482638#13 -30482638#11 -30482638#10 -30482638#9 -30482638#8 -30482638#3 -30482638#2 -201926266 -90587320 -37480109 -90587323 -10425611#1 -10425611#0 -10425611#0.35 4324827#0 203971381#0 203971381#1 4324820 164051399 201956817 33279254#1 556434727 542630099 354967545#0.45 354967545#1 141058765#0 141058765#1 141058765#2 141058765#2.33 31624236#0 172700927#0 -48742425#2 -48742425#1 -48742425#0 -205182378#15 -205182378#14 -205182378#13 -20975943#2 20975954#1 -28269810#3 -28269810#2 -28269810#1 -163586462 -4819338#4 -4819338#3 -4819338#1 -4819338#0 266607803#0 266607803#1 266607803#2 266607792#0"/>
    </vehicle>
    <vehicle arrivalPos="25.00" arrivalSpeed="0.00" depart="40909.46" departPos="0.00" id="carIn83302:1" type="default_010">
        <route edges="266885715 266885715.39 266885718#0 266885718#1 266885720 32930763 32930762 266507537 27454740 27454730 266507538 266507539 27392718 27392719 4058141 266507543 266507532 327975022 327975022.30 327975022.62 39704920 151167740 266507555 266507558 39704924 39704922 266507540 27392720 27392724 266507546 266507536 27550700 27454737 266507535 32930761 146973160 266885714 146973156#0 450076615#0 161680739 27453586#0 gneE119"/>
    </vehicle>
    <vehicle arrivalPos="0.00" arrivalSpeed="0.00" depart="40911.46" departPos="0.00" id="carIn32007:1" type="default_010">
        <route edges="266885715 266885715.39 266885718#0 266885718#1 266885720 32930763 32930762 266507537 27454740 27454730 266507538 266507539 27392718 27392719 4058141 266507543 266507532 327975022 327975022.30 327975022.62 39704920 151167740 266507555 266507554 -28132852 26180725#1 175761127#0 175761127#2 175761127#8 175761127#10 28132813 -202070429#5 -202070429#4 -202070429#3 -202070429#2 -202070429#1 -202070429#0 151167728 257907859#0 257907859#1 257907860#0 257907860#1.168 305390325#0 305390325#3 266567304#0 266567301#1 64464420 25955089 64464430 32009826#0 32009826#1 31342305 30404124 266567307#0 233673425#0 233673425#1 -380273343 -266565302 -24537982#4 -24537982#3 -24537982#2 -24537982#1 -24972185#9 -24972185#8 -24972185#8.373 -24972185#1 -32978638#3 -32978638#0 32021112#0 168702040#1 168702040#2 168702040#3 168702040#4 168702039#0 168702039#1 32999434#0 201089423#0 201089423#2 32124744 32124743 285716192#0 285716192#0.83 104010439#1 202070434#0 202070434#2 -139230366 -233675413#8"/>
    </vehicle>
    <vehicle arrivalPos="0.00" arrivalSpeed="0.00" depart="40912.00" departPos="0.00" id="carIn32286:1" type="default_010">
        <route edges="380271165#0 161680736 28593900 266885722 266885721#0 161680744#0 161680744#1 266887586 266887587 266887592 141058757 266887585#0 266887593#0 20266190#0 -20266191 201926269#1 20588641#0 20588641#1 -48742425#1 -48742425#0 -37282688#5 -37282688#4 -37282688#3 20975950#0 -168245119#2 23184317 29458101 27893434#1 27893434#2 -33779209#2 gneE19 38508400#1 172515811#0 306086241 61940356 172515808 24495188 61940355 102818925 102818928#1 10425610#0 156923526#0 156923526#3 390282481 51856496#0 51856496#1 51856496#2 51856496#3 51856496#4 51856496#5 51856496#6 51856496#8 204388144#0 204388144#1 18909061#0 389831363#0 32061928#2 32061928#4 32061928#5 389840420#3 -32978638#3 -32978638#0 32021112#0 51857516#1 -266565295#5 -266565295#4 -266565295#3 -148050451#2 -148050452#0 148050455#1 148050455#2 28639688#0 28639688#1 28639688#3 116687469#0 248012815#0 248012815#1 30399325 30399322#1.56 25367735#1 -25344437#5"/>
    </vehicle>
    <vehicle arrivalPos="0.00" arrivalSpeed="0.00" depart="40914.00" departPos="184.47" id="h3792c1:1" type="default_010">
        <route edges="24634413#0 -160314345#1 -160314345#0 -160314346#1 -160314346#0"/>
    </vehicle>
    <vehicle arrivalPos="72.77" arrivalSpeed="0.00" depart="40914.00" departPos="30.41" id="randUni21799:1" type="random_010">
        <route edges="-25901706 25895864#1 -26176222#0 25797433#0 25797433#1 25797433#2 25797433#3 29238187#0 29238187#1 29238187#2 -29027727#2 -201444272#4 -201444272#2 -201444272#0 30404130#0 323248169#0 323248155#1 24971737#3 -32199989#1 -32199989#0 -32199969#5 -32199969#4 -32199969#1 -164051410#1 -164051410#0 24977473#0 54154922#0 54154922#1 26071515#0 26071515#1 4324820 164051399 201956817 33279254#1 556434727 542630099 354967545#0.45 354967545#1 141058765#0 141058765#1 141058765#2 141058765#2.33 31624236#0 172700927#0 -48742425#2 -48742425#1 -48742425#0 -205182378#15 -205182378#14 -205182378#13 -205182378#12 -205182378#11 -205182378#9 -205182378#7 -205182378#6 -205182378#5 -205182378#4"/>
    </vehicle>
    <vehicle arrivalPos="108.71" arrivalSpeed="0.00" depart="40916.46" departPos="0.00" id="carIn3143:1" type="default_010">