<?xml version="1.0" encoding="UTF-8"?>
<!-- generated on 2022-04-26 22:14:28.204124 by cutRoutes.py UNKNOWN
  options: ingolstadt_reduced.net.xml /home/momo/dateien/Studies/thesis/workspace/InTAS_reduced/scenario/routes/InTAS_016.rou.xml <doubleminus>routes-output routes_reduced/InTAS_016.rou.xml <doubleminus>orig-net ingolstadt.net.xml
-->
<routes xmlns:xsi="http://www.w3.org/2001/XMLSchema-instance" xsi:noNamespaceSchemaLocation="http://sumo.dlr.de/xsd/routes_file.xsd">
    <vType color="red" id="default_016" vClass="passenger"/>
    <vType color="blue" id="random_016" vClass="passenger"/>
    <vehicle arrivalPos="230.00" arrivalSpeed="0.00" depart="56427.00" departPos="0.11" id="h12528c1:1" type="default_016">
        <route edges="25626605#4 25625950 391029007 391029008#0 391029008#1 391029008#1.77 391029008#2 -33280103#5 -33280103#3 -33280103#2 -33280103#1 -33280103#0 33280102#0 33280102#1 33280102#2 33280102#3 33280102#5 257907860#0 257907860#1.168 305390325#0 25797295#0 -201444272#0 30404130#0 30404130#1 64464420 25955089 64464430 64464399#0 64464399#1 64464432#0 64464432#1 64464432#2 -24991571 -24991573 -11014139#1 145069303#0 145069303#1 145069303#2 145069303#4 -26973015 24983010#0 24983010#1 161678033#0 -32350852#4 -32350852#3 -32350852#1 -28418764#2 -28418764#1 -28418764#0.88 -28418764#0.109 -542617943 -389831364 -102818928#1 -102818928#0 -102818928#0.78 -61940355 -24495188 -29458641 -61940356 29458640#0 172517196 -38508400#1 gneE20 33779209#1 -103718173 -27893434#1 -27893434#0 -23184317 20975948#0 20975943#0 20975952#1 20975948#3 28269810#3 28269810#4 28269810#5 -20975946#1 -201278210#6 20588624#1 20588624#2 -205182378#6 -205182378#5 -205182378#4"/>
    </vehicle>
    <vehicle arrivalPos="0.00" arrivalSpeed="0.00" depart="56429.00" departPos="0.00" id="carIn49230:1" type="default_016">
        <route edges="380271165#0 161680736 28593900 266885722 146973149 146973150#0 266885719 266885719.121"/>
    </vehicle>
    <vehicle arrivalPos="41.40" arrivalSpeed="0.00" depart="56433.00" departPos="0.00" id="carIn33677:1" type="default_016">
        <route edges="266507542 -28132852 26180725#1 -36291830 30320943 378466167 266507548 257907861 151167740 266507555 266507554 266507557#0 266507557#1 172368742 172368742.57 172368742.75 172368742.185 542650762 391208991 25626614#0 25626614#1 25626614#2 391029007 391029008#0 391029008#1 391029008#1.77 391029008#2 -33280103#5 -26176222#1 26176223#0 26176223#1 -144657087#1 61326427#0 -274823622#0 -274823622#0.68 -31342351#1 31342349#0"/>
    </vehicle>
    <vehicle arrivalPos="68.23" arrivalSpeed="0.00" depart="56433.00" departPos="66.06" id="randUni18866:1" type="random_016">
        <route edges="32976752 28091398 327975022 327975022.30 327975022.62 39704919 28091397 542650138 266507547 -266507550 -308849647 -201789794#3 -201789794#2 -202070429#9 -202070429#6 -202070429#5 -202070429#4 -202070429#3 -202070429#2 -202070429#1 -202070429#0 151167728 257907859#0 257907859#1 257907860#0 257907860#1.168 305390325#0 25797295#0 -201444272#0 30404130#0 30404130#1 64464420 25955089 64464430 64464399#0 64464399#1 64464432#0 64464432#1 64464432#2 -24991571 -24991573 -11014139#1 145069303#0 145069303#1 145069303#2 145069303#4 -26973015 24983010#0 24983010#1 161678033#0 -32350852#4 -32350852#3 -32350852#1 -28418764#2 -28418764#1 -28418764#0.88 -28418764#0.109 -542617943 -389831364 10425610#0 156923526#0 156923526#3 390282481 51856496#0 51856496#1 51856496#2 51856496#3 51856496#4 51856496#5 51856496#6 51856496#8 204388144#0 204388144#1 -33102476 -36689751#2 10425609#0 10425609#1 201963537#1 -164051413 -653473569#5 -653473569#4"/>
    </vehicle>
    <vehicle arrivalPos="25.31" arrivalSpeed="0.00" depart="56434.00" departPos="3.52" id="h4456c1:1" type="default_016">
        <route edges="28639688#0 28639688#1 28639688#3 24890429#0 25794522 -148050453#5 -148050457#2 148050455#0 148050452#0 148050451#0 266565295#3 266565295#4 266565295#5 32999435 32124637#0 32124637#1 168702040#1 168702040#2 168702040#3 168702040#4 168702039#0 168702039#1 32999434#0 24693977#0 24693977#1 315392062#0 201238718#0"/>
    </vehicle>
    <vehicle arrivalPos="0.00" arrivalSpeed="0.00" depart="56436.00" departPos="71.44" id="h12011c1:1" type="default_016">
        <route edges="31342349#0 31342349#3 -54858974 -152077572#2 -152077572#1 -29238188#3 -25895966#7 -25895966#5 -274823622#2 26176225#0 26176225#1 26176225#2 26176225#3 26176225#4 26176225#5 144657087#3 26176222#0 26176222#1 33280103#4 33280103#4.68 391208990 391029009#0 391029009#0.69 391029009#1 391029009#1.157 41425835 41425835.214 41425835.236 151167747 151167747.23 549032836 39704924 39704922"/>
    </vehicle>
    <vehicle arrivalPos="200.00" arrivalSpeed="0.00" depart="56436.00" departPos="0.00" id="carIn101282:1" type="default_016">
        <route edges="380271165#0 161680736 28593900 266885722 266885721#0 161680744#0 161680744#1 266887586 266887587 266887592 141058757 266887585#0 266887593#0 266887593#4 266887588#0 266887588#1 -201926269#3 -201926269#2 -201926269#1 -201926269#0 -389840423#0 -23184252#1 -23184252#0 -37282688#5 -37282688#4 -37282688#3 -37282688#1 29458100#0 -201278214#1 -29458645 -29458645.13 -29458645.28 131118468#0 131118468#0.16 131118468#1 131118468#3 131118468#4 305390335 172515813 201278215 305390324 -39649533 32923867#1 32923867#1.96 32923867#2 32923867#3 32923867#4 379723624#0 379723624#1 130996518#0 -233673423 145069386#0 32124563#0 342077199 -145069366#2 32350852#0 32350852#3 32350852#4 -161678033#0 -24983010#2 -24983010#0 26973015 -145069303#4 -145069303#3 -145069303#1 -145069303#0 -32009683#1 -24972185#9 -24972185#8 -24972185#8.373 -24972185#1 -32978638#3 -32978638#0 32021112#0 168702040#1 168702040#2 168702040#3 168702040#4 168702039#0 168702039#1 -24634414#5 -37386279 -24634413#2 -24634413#1 -160314345#1 -160314345#0 201238718#0"/>
    </vehicle>
    <vehicle arrivalPos="0.00" arrivalSpeed="0.00" depart="56439.00" departPos="0.00" id="carIn20544:1" type="default_016">
        <route edges="380271165#0 161680736 28593900 266885722 266885721#0 161680744#0 161680744#1 266887586 266887587 266887592 141058757 266887585#0 266887593#0 20266190#0 20266190#2 -72883541#0 30054829#0 30054829#1 -20405617#1 -20405617#0 201278210#6 201278210#7 201278210#9 205182378#12 205182378#13 205182378#14 205182378#15 -37282688#5 -37282688#4 -37282688#3 -37282688#1 29458100#0 -201278214#1 -29458645 -29458645.13 -29458645.28 131118468#0 131118468#0.16 131118468#1 131118468#3 131118468#4 305390335 172515813 201278215 305390324 -39649533 32923867#1 32923867#1.96 32923867#2 32923867#3 32923867#4 379723624#0 379723624#1 130996518#0 -233673423 145069386#0 32124563#0 342077199 -145069366#2 32350852#0 32350852#3 32350852#4 -161678033#0 -24983010#2 -24983010#0 26973015 -145069303#4 -145069303#3 -145069303#1 -145069303#0 -32009683#1 -24972185#9 -24972185#8 -24972185#8.373 -24972185#1 -32978638#3 -32978638#0 32021112#0 168702040#1 168702040#2 168702040#3 168702040#4 168702039#0 168702039#1 -24634414#5 -37386279 -24634413#2 -24634413#1 -160314345#1 -160314345#0 201238718#0"/>
    </vehicle>
    <vehicle arrivalPos="6.65" arrivalSpeed="0.00" depart="56445.00" departPos="109.26" id="randUni20366:1" type="random_016">
        <route edges="-25640093#1 149045269#2 149045269#3 -202070429#9 -202070429#6 -202070429#5 153692837#0 25640093#4 25640093#5 25640093#6 25640093#7 -115082348#2 110435735 -137463475#1 137463477#0 305390325#0 25797295#0 -201444272#0 30404130#0 30404130#1 64464420 25955089 64464430 64464399#0 64464399#1 64464432#0 64464432#1 64464432#2 -24991571 -24991573 -11014139#1 145069303#0 145069303#1 145069303#2 145069303#4 -26973015 24983010#0 24983010#1 161678033#0 -32350852#4 -32350852#3 -32350852#1 -28418764#2 -28418764#1 -28418764#0.88 -28418764#0.109 -542617943 -389831364 -102818928#1 -102818928#0 -102818928#0.78 -61940355 -24495188 -29458641 -61940356 29458640#0 172517196 -38508400#1 gneE20 33779209#1 -103718173 -27893434#1 -27893434#0 -23184317 168245119#0 -20975950#0 -37282688#1 29458100#0 201278216#0 29458647#0 37282369 354967544#0 354967544#1 354967544#2 -266887590#1 -266887590#0 -589179144 118004640#0 -115881041#4 -115881041#3 -115881041#0 -58622231#5 -58622231#2"/>
    </vehicle>
    <vehicle arrivalPos="130.19" arrivalSpeed="0.00" depart="56447.00" departPos="110.84" id="h83c1:3" type="default_016">
        <route edges="31362504#0 -31362504#3 -32923867#0 130996520 130996520.58 172519650 306396705 -33779209#2 gneE19 38508400#1 172515811#0 306086241 61940356 172515808 24495188 61940355 201969576#0 201969576#1 201969576#2 201969576#5 201969576#6 201969576#7 29497467 124812856#0 124812856#1 201956821#0 201956821#1.68 201963537#1 104010475#0 104012170 -32124745 -32124743 -32124744 -201089423#2 -201089423#1 24693977#0 24693977#1 315392062#0 -160314346#1 -160314346#0"/>
    </vehicle>
    <vehicle arrivalPos="200.00" arrivalSpeed="0.00" depart="56453.00" departPos="0.00" id="carIn82461:1" type="default_016">
        <route edges="380271165#0 161680736 28593900 266885722 266885721#0 161680744#0 161680744#1 266887586 266887587 266887592 141058757 266887585#0 266887593#0 266887593#4 266887588#0 266887588#1 201926268#0 266887589#0 589179144 266887590#0 266887590#1 4268816#0 4268816#1 201956818#1 201956818#2 201956818#5 164051398 203971379#0 203971379#1 -54154922#1 -54154922#0 -42745461#1 -42745461#0 -42745460 -28132014#2 -28132014#0 24978651 115082348#0 115082348#1 115082348#3 115082348#4 257907858#0 27202149 202070427#0 25796375#0 25796375#1 25796375#2 25796388 32202763 -25638529 25895961 -274823622#3 -274823622#2 -274823622#1 -274823622#0 -274823622#0.68 -31342351#1 31342349#0 31342349#3 542727960 30399316#0"/>
    </vehicle>
    <vehicle arrivalPos="25.00" arrivalSpeed="0.00" depart="56454.00" departPos="0.00" id="carIn17100:1" type="default_016">
        <route edges="380271165#0 161680736 28593900 266885722 266885721#0 161680744#0 161680744#1 266887586 266887587 266887592 141058757 266887585#0 266887593#0 266887593#4 266887588#0 266887588#1 -201926269#3 -201926269#2 -201926269#1 20266191 -20266190#1 -266887593#3 -266887591 -141058757 111525330#0 350320331#0 266885723#0 161680739 27453586#0 gneE119"/>
    </vehicle>
    <vehicle arrivalPos="0.00" arrivalSpeed="0.00" depart="56455.00" departPos="0.00" id="carIn113138:1" type="default_016">
        <route edges="380271165#0 161680736 28593900 266885722 266885721#0 161680744#0 161680744#1 266887586 266887587 266887592 141058757 266887585#0 266887593#0 20266190#0 20266190#2 -72883541#0 30054829#0 30054829#1 -20405617#1 -20405617#0 201278210#6 201278210#7 201278210#9 205182378#12 205182378#13 205182378#14 205182378#15 -37282688#5 -37282688#4 -37282688#3 -37282688#1 29458100#0 -201278214#1 -29458645 -29458645.13 -29458645.28 131118468#0 131118468#0.16 131118468#1 131118468#3 131118468#4 305390335 172515813 201278215 305390324 -39649533 32923867#1 32923867#1.96 32923867#2 32923867#3 32923867#4 379723624#0 379723624#1 130996518#0 -233673423 145069386#0 32124563#0 342077199 -145069366#2 32350852#0 32350852#3 32350852#4 51857519#0 161678034#0 161678034#1 161678034#2 161678034#2.30 161678034#2.46 24970784#0 164051410#0 164051410#1 32199969#0 23009002#0 24978651 115082348#0 115082348#1 115082348#3 115082348#4 257907858#0 31021475 202070430 202070429#0 202070429#1 202070429#2 202070429#3 202070429#4 202070429#5 202070429#6 202070429#7 201789794#0 201789794#3 308849647 266507550 30320943 378466167 266507548 32976755 327975020 327975024 327975024.20 327975024.51 327975019 28132017"/>
    </vehicle>
    <vehicle arrivalPos="0.00" arrivalSpeed="0.00" depart="56455.46" departPos="0.00" id="carIn120401:1" type="default_016">
        <route edges="266885715 266885715.39 266885718#0 266885718#1 266885720 32930763 32930762 266507537 27454740 27454730 266507538 266507539 27392718 27392719 4058141 266507543 266507532 327975022 327975022.30 327975022.62 39704920 151167740 266507555 266507554 -28132852 26180725#1 -36291830 30320943 23622426 -195073412#2 -195073412#1 -195073412#0 195073415 266507536 27550700 27454737 266507535 32930761 146973160 266885714 266885716 266885719 266885719.121"/>
    </vehicle>
    <vehicle arrivalPos="0.00" arrivalSpeed="0.00" depart="56457.00" departPos="18.38" id="h9671c2:1" type="default_016">
        <route edges="25640148#0 25640148#1 25640148#2 -25640157#1 25640375#0 25640145#0 25640145#2 25640145#3 25640145#4 32350901#2 201789797#0 201789797#1 41139095 25596974#0 25596974#1 -25640093#2 25597372 202070429#6 202070429#7 201789794#0 201789794#3 308849647 266507550 30320943 378466167 266507548 257907861 151167740 266507555 266507554 266507557#0 266507557#1 172368742 172368742.57 172368742.75 172368742.185 542650763#0 542650763#1.78 542650763#2 391029008#0 391029008#1 391029008#1.77 391029008#2 -33280103#5 -26176222#1 -26176222#0 -144657087#3 -26176225#5 -26176225#4 -26176225#3 -26176225#2 -26176225#1 -26176225#0 274823622#2 25895966#0 25895966#6 29238188#3 152077572#0 152077572#2 152077572#2.79 54858974 4942408 54858973#0 54858973#0.62 54858973#1 54858973#2 29119849#0 29119849#1 29119850 29119850.70 30399326#0 -137246371#2 -137246371#1 -138002149#2 -138002149#1 -138002149#0 -25316932#4 -10425532#5 -447569998#1 -447569997#0 -315358252#1"/>
    </vehicle>
    <vehicle arrivalPos="10.02" arrivalSpeed="0.00" depart="56457.46" departPos="0.00" id="carIn82520:1" type="default_016">
        <route edges="146973183#0 450072140 28593900 266885722 266885721#0 161680744#0 161680744#1 266887586 266887587 266887592 141058757 266887585#0 266887593#0 266887593#4 266887588#0 266887588#1 201926268#0 266887589#0 589179144 266887590#0 266887590#1 4268816#0 4268816#1 201956818#1 201956818#2 201956818#5 164051398 203971379#0 203971379#1 -54154922#1 -54154922#0 -24977473#2 -24970784#3 -161678034#2 -161678034#2.33 -161678034#2.50 -161678034#1 -161678034#0 -51857519#1 -32350852#4 -32350852#3 -32350852#1 -28418764#2 -28418764#1 -28418764#0.88 -28418764#0.109 -542617943 -389831364 -102818928#1 -102818928#0 -102818928#0.78 -61940355 -24495188 -29458641 -61940356 29458640#0 172517196 -38508400#1 -174609517#3 -33814393#3 -33814393#1 -33814393#0 -391208988 26339462#0 201933880#0 201933880#3"/>
    </vehicle>
    <vehicle arrivalPos="0.00" arrivalSpeed="0.00" depart="56461.00" departPos="0.00" id="carIn57077:1" type="default_016">
        <route edges="450072140 28593900 266885722 146973149 146973150#0 266885719 266885719.121"/>
    </vehicle>
    <vehicle arrivalPos="0.00" arrivalSpeed="0.00" depart="56461.46" departPos="0.00" id="carIn96812:1" type="default_016">
        <route edges="146973183#0 450072140 28593900 266885722 266885721#0 161680744#0 161680744#1 266887586 266887587 266887592 141058757 266887585#0 266887593#0 266887593#4 266887588#0 266887588#1 -201926269#3 -201926269#2 20588641#0 20588641#1 -48742425#1 -48742425#0 -205182378#15 -205182378#14 20975942#0 20975942#1 20975952#0 -20975943#0 -20975948#0 23184317 29458101 27893434#1 27893434#2 174321447 58295043 32923863#2 266607804#0 266607804#1 266607804#2 266607803#0 266607803#1 266607803#2 266607792#0"/>
    </vehicle>
    <vehicle arrivalPos="0.00" arrivalSpeed="0.00" depart="56465.00" departPos="79.52" id="randUni29759:1" type="random_016">
        <route edges="32923867#1 32923867#1.96 32923867#2 32923867#3 32923867#4 379723624#0 379723624#1 130996518#0 -233673423 -32201044#2 -32201044#1 -32201044#0 -32201042 -145069294#1 -24982688#4 -24982688#2 -24982688#1 -24982688#1.52 -145069366#3 -145069366#2 32350852#0 32350852#3 32350852#4 -161678033#0 -24983010#2 -24983010#0 26973015 -145069303#4 -145069303#3 -145069303#1 -145069303#0 11014139#0 24991573 24991571 64464405 266567306 64464408 64464384#1 32009827 266567303 266567294#0 25797090#1 201444272#0 201444272#1 201444272#3 29027727#0 29027727#4 29027727#6 29027727#7 29027727#9 152077572#0 152077572#2 152077572#2.79 54858974 542727960 30399316#0"/>
    </vehicle>
    <vehicle arrivalPos="0.00" arrivalSpeed="0.00" depart="56467.00" departPos="23.74" id="h3622c2:3" type="default_016">
        <route edges="160314345#1 160314345#2 24634414#2 24634416 315358253#1 315358253#2 315358253#3 402600768#0 402600768#1 51857517#0 51857517#0.33 51857517#1 51857516#1 -266565295#5 -266565295#4 -266565295#3 -266565295#2 -266565295#1 -266565295#0 -266565299 -24977590#1 -24977590#0 -233673425#1 -233673425#0 -266567307#1 -30404124 30417892 266567308#0 64464384#1 32009827 266567303 266567294#0 31342064#1 31342064#1.83 305495773#0 266507551 266507552#0 31021475 202070430 202070429#0 202070429#1 202070429#2 202070429#3 202070429#4 202070429#5 202070429#6 202070429#7 201789794#0 201789794#3 308849647 266507550 30320943 378466167 266507548 32976755 327975020 327975024 327975024.20 327975024.51 327975019 146973189 195073416 195073418#0 195073418#1 266507539 27392718 27392719"/>
    </vehicle>
    <vehicle arrivalPos="117.18" arrivalSpeed="0.00" depart="56467.00" departPos="199.05" id="h3776c1:1" type="default_016">
        <route edges="24634411 201201950#1 201201950#2 201201950#3 201201950#4 272042145 42745545#0 42745545#2 42745545#3 42745545#4 42745545#5 42745545#5.128 42745545#6 28639688#0 28639688#1 28639688#3 24890429#0 24890429#1 24890429#2 -203127020#4"/>
    </vehicle>
    <vehicle arrivalPos="0.00" arrivalSpeed="0.00" depart="56472.46" departPos="0.00" id="carIn30526:1" type="default_016">
        <route edges="266885715 266885715.39 266885718#0 266885718#1 266885720 32930763 32930762 266507537 27454740 27454730 266507538 266507539 27392718 27392719 4058141 266507543 266507532 327975022 327975022.30 327975022.62 39704920 151167740 266507555 266507554 266507557#0 266507557#1"/>
    </vehicle>
    <vehicle arrivalPos="0.00" arrivalSpeed="0.00" depart="56473.00" departPos="0.00" id="carIn45376:1" type="default_016">
        <route edges="450072140 28593900 266885722 146973149 146973150#0 266885719 266885719.121"/>
    </vehicle>
    <vehicle arrivalPos="277.38" arrivalSpeed="0.00" depart="56477.00" departPos="0.00" id="carIn34989:1" type="default_016">
        <route edges="380271165#0 161680736 28593900 266885722 266885721#0 161680744#0 161680744#1 266887586 266887587 266887592 141058757 266887585#0 266887593#0 20266190#0 20266190#2 -72883541#0 30054829#0 30054829#1 -20405617#1 -20405617#0 201278210#6 201278210#7 201278210#9 205182378#12 205182378#13 205182378#14 205182378#15 -37282688#5 -37282688#4 -37282688#3 -37282688#1 29458100#0 -201278214#1 -29458645 -29458645.13 -29458645.28 131118468#0 131118468#0.16 131118468#1 131118468#3 131118468#4 305390335 172515813 201278215 305390324 -39649533 32923867#1 32923867#1.96 32923867#2 32923867#3 32923867#4 379723624#0 379723624#1 130996518#0 -233673423 145069386#0 32124563#0 342077199 -145069366#2 32350852#0 32350852#3 32350852#4 -161678033#0 -24983010#2 -24983010#0 26973015 -145069303#4 -145069303#3 -145069303#1 -145069303#0 -32009683#1 -24972185#9 -24972185#8 -24972185#8.373 -24972185#1 -32978638#3 -32978638#0 32021112#0 168702040#1 168702040#2 168702040#3 168702040#4 168702039#0 168702039#1 -24634414#5 -37386279 -24634413#2 -24634413#1 -160314345#1 -160314345#0 201238718#0"/>
    </vehicle>
    <vehicle arrivalPos="8.72" arrivalSpeed="0.00" depart="56477.00" departPos="0.00" id="carIn61034:1" type="default_016">
        <route edges="380271165#0 161680736 28593900 266885722 266885721#0 161680744#0 161680744#1 266887586 266887587 266887592 141058757 266887585#0 266887593#0 20266190#0 20266190#2 72883541#1 20266189#0 20266189#1 201926265#3 589179136 -20405617#0 20588624#1 20588624#2 205182378#7 205182378#8 -28269810#6 -28269810#4 -20975954#1 -20975943#1 20975952#1 20975952#2 -28269810#1 -163586462 -4819338#4 -4819338#3 -4819338#1 -4819338#0 23184274#0 23184274#1 24499966#0 24499966#1 201933877#0 -201933879#6"/>
    </vehicle>
    <vehicle arrivalPos="0.00" arrivalSpeed="0.00" depart="56478.00" departPos="0.00" id="carIn15502:1" type="default_016">
        <route edges="380271165#0 161680736 28593900 266885722 266885721#0 161680744#0 161680744#1 266887586 266887587 266887592 141058757 266887585#0 266887593#0 20266190#0 20266190#2 -72883541#0 30054829#0 30054829#1 -20405617#1 -20405617#0 201278210#6 201278210#7 201278210#9 205182378#12 205182378#13 205182378#14 205182378#15 -37282688#5 -37282688#4 -37282688#3 -37282688#1 29458100#0 -201278214#1 -29458645 -29458645.13 -29458645.28 131118468#0 131118468#0.16 131118468#1 131118468#3 131118468#4 305390335 172515813 201278215 305390324 -39649533 32923867#1 32923867#1.96 32923867#2 32923867#3 32923867#4 379723624#0 379723624#1 130996518#0 -233673423 145069386#0 32124563#0 342077199 -145069366#2 32350852#0 32350852#3 32350852#4 51857519#0 161678034#0 161678034#1 161678034#2 161678034#2.30 161678034#2.46 24970784#0 164051410#0 164051410#1 32199969#0 23009002#0 24978651 115082348#0 115082348#1 115082348#3 115082348#4 257907858#0 31021475 202070430 202070429#0 202070429#1 202070429#2 202070429#3 202070429#4 202070429#5 202070429#6 202070429#7 201789794#0 201789794#3 308849647 266507550 30320943 378466167 266507548 32976755 327975020 327975024 327975024.20 327975024.51 327975019 28132017"/>
    </vehicle>
    <vehicle arrivalPos="0.00" arrivalSpeed="0.00" depart="56478.00" departPos="0.00" id="carIn50615:1" type="default_016">
        <route edges="380271165#0 161680736 28593900 266885722 266885721#0 161680744#0 161680744#1 266887586 266887587 266887592 141058757 266887585#0 266887593#0 20266190#0 20266190#2 -72883541#0 30054829#0 -201926265#4 -201926265#3 -201926265#2 -201926265#1 -20975939#0 72883541#3 389840423#1 201926269#1 201926269#2 201926269#3 58622231#0 58622231#3 115881041#0 115881041#1 115881041#4 461125446#0 461125445 208010459#1 -201953160#1 115881043#0 115881043#1 115881043#3 115881043#5 115881043#6 115881043#7 115881043#8 115881043#9 -201953161#7 -201953161#6 -140834262#1 26471933 -4268967#1 -26471938 26471932#0 164051398 203971379#0 203971379#1 -54154922#1 -54154922#0 -42745461#1 -42745461#0 -42745460 25597196#0 25597196#2 25597196#3 25597196#4 25597196#5 25597196#6 -153692837#3 gneE134 -481432711 -41139095 -25596851#6 -25596851#5 -25596851#4 -25596851#3 -25596851#2 -25596851#1 -25596851#0 201880159#1 201880159#2 201789796#0.31 201789796#1 201789795 -26180725#2 28132852 549032836 39704924 39704922"/>
    </vehicle>
    <vehicle arrivalPos="3.10" arrivalSpeed="0.00" depart="56479.00" departPos="91.38" id="h17928c1:3" type="default_016">
        <route edges="-202070429#5 153692837#0 153692837#1 153692837#2 153692837#3 25597196#7 25597196#10 -25573246#1 -25573246#0 30482638#12 201789799#0 201789799#1 201789799#2 201789798#0 201789798#1 202070435#0 202070435#1 202070435#2 202070435#5 202070435#5.37 202070435#5.70 202070435#9"/>
    </vehicle>
    <vehicle arrivalPos="0.00" arrivalSpeed="0.00" depart="56480.09" departPos="0.00" id="carIn133271:1" type="default_016">
        <route edges="39530041 266507542 39704923 266507553 39704918 542650138 266507547 -266507550 -308849647 -201789794#3 -201789794#2 -202070429#9 -202070429#6 -202070429#5 -202070429#4 -202070429#3 -202070429#2 -202070429#1 -202070429#0 151167728 257907859#0 257907859#1 257907860#0 257907860#1.168 305390325#0 25797295#0 -201444272#0 30404130#0 30404130#1 64464420 25955089 64464430 64464399#0 64464399#1 64464432#0 64464432#1 64464432#2 -24991571 -24991573 -11014139#1 -32009683#1 -24972185#9 -24972185#8 -24972185#8.373 -24972185#1 -389840420#4 -389840420#2 24599188#0 24599188#0.75 24599188#0.94 172488482#0 -32124744 -201089423#2 22716549#0 24634509#0 24634509#1"/>
    </vehicle>
    <vehicle arrivalPos="55.09" arrivalSpeed="0.00" depart="56483.00" departPos="9.72" id="h1545c1:5" type="default_016">
        <route edges="26471752#2.161 -26471752#5 -26471752#5.18 -26471752#1 32923867#3 32923867#4 379723624#0 379723624#1 130996518#0 -233673423 145069386#0 32124563#0 342077199 -145069366#2 -28418764#2 -28418764#1 -28418764#0.88 -28418764#0.109 -542617943 -389831364 -102818928#1 -102818928#0 -102818928#0.78 201969576#0 201969576#1 201969576#2 201969576#5 151167738#0 151167738#1 151167738#2 23442105#0 -25076787#1 -25171366#2 -25171366#1 -25171366#0 -173169611#4 -173169611#3 25149001#0 25149001#1"/>
    </vehicle>
    <vehicle arrivalPos="172.39" arrivalSpeed="0.00" depart="56485.00" departPos="0.00" id="carIn9740:1" type="default_016">
        <route edges="380271165#0 161680736 28593900 266885722 266885721#0 161680744#0 161680744#1 266887586 266887587 266887592 141058757 266887585#0 266887593#0 20266190#0 20266190#2 72883541#1 72883541#2 20975939#0 20975939#1 20975946#0 -28269810#6 -28269810#4 -20975954#1 -20975943#1 -20975943#0 -20975948#0 23184317 29458101 27893434#1 27893434#2 -33779209#2 gneE19 38508400#1 172515811#0 306086241 61940356 172515808 24495188 61940355 201969576#0 201969576#1 201969576#2 201969576#5 201969576#6 201969576#7 29497467 124812856#0 124812856#1 201956821#0 201956821#1.68 201956811#0 36689751#0 33102476 18909064 gneE3 -145069347#2 29002239 35926319#0 35926319#1 -108310253 -29458096 -51856495#2 -29458097#2 -32978638#3 -32978638#0 32021112#0 168702040#1 168702040#2 -24608846#1 -24608846#0 -160314345#5 -160314345#4 -160314345#3 -160314345#2 -160314345#1 -160314345#0 201238718#0"/>
    </vehicle>
    <vehicle arrivalPos="0.00" arrivalSpeed="0.00" depart="56487.44" departPos="0.00" id="carIn109781:1" type="default_016">
        <route edges="32976752 28091398 327975022 327975022.30 327975022.62 39704919 28091397 542650138 266507547 -266507550 -308849647 -201789794#3 -201789794#2 -202070429#9 -25895945#2 175761127#8 175761127#10 175761127#12 175761127#14 175761127#15 28132836#3 25573267#0 25573267#1 -202070429#0 151167728 26451152#0 202070427#0 25796375#0 25796375#1 25796375#2 25638527 32202927#0 32202927#1 32202927#2 137463478#2 29238187#0 29238187#1 29238187#2 29027727#4 29027727#6 29027727#7 29027727#9 152077572#0 152077572#2 152077572#2.79 54858974 542727960 30399316#0"/>
    </vehicle>
    <vehicle arrivalPos="23.13" arrivalSpeed="0.00" depart="56487.46" departPos="0.00" id="carIn694:1" type="default_016">
        <route edges="146973183#0 450072140 28593900 266885722 266885721#0 161680744#0 161680744#1 266887586 266887587 266887592 141058757 266887585#0 266887593#0 266887593#4 266887588#0 266887588#1 -201926269#3 -201926269#2 20588641#0 20588641#1 -48742425#1 -48742425#0 -205182378#15 -205182378#14 20975942#0 20975942#1 20975952#0 -20975943#0 -20975948#0 23184317 29458101 27893434#1 27893434#2 174321447 58295043 32923863#2 266607804#0 266607804#1 266607804#2 266607803#0 266607803#1 266607803#2 266607792#0"/>
    </vehicle>
    <vehicle arrivalPos="0.00" arrivalSpeed="0.00" depart="56487.46" departPos="0.00" id="carIn17361:1" type="default_016">
        <route edges="266885715 266885715.39 266885718#0 266885718#1 266885720 32930763 32930762 266507537 27454740 27454730 266507538 266507539 27392718 27392719 4058141 266507543 266507532 327975022 327975022.30 327975022.62 39704920 151167740 266507555 266507554 266507557#0 266507557#1"/>
    </vehicle>
    <vehicle arrivalPos="0.00" arrivalSpeed="0.00" depart="56489.44" departPos="0.00" id="carIn112535:1" type="default_016">
        <route edges="32976752 28091398 327975022 327975022.30 327975022.62 39704919 28091397 542650138 266507547 -266507550 -308849647 -201789794#3 -201789794#2 -202070429#9 -202070429#6 -25597372 25640093#2 -25596974#1 -25596974#0 -41139095 -25596851#6 -25596851#5 -25596851#4 -151167720#1 -151167720#0 201789799#2 201789798#0 201789798#1 202070435#0 202070435#1 202070435#2 202070435#5 202070435#5.37 202070435#5.70 202070435#9"/>
    </vehicle>
    <vehicle arrivalPos="0.00" arrivalSpeed="0.00" depart="56490.00" departPos="0.00" id="carIn95893:1" type="default_016">
        <route edges="380271165#0 161680736 28593900 266885722 146973149"/>
    </vehicle>
    <vehicle arrivalPos="0.00" arrivalSpeed="0.00" depart="56491.00" departPos="0.00" id="carIn16052:1" type="default_016">
        <route edges="380271165#0 161680736 28593900 266885722 266885721#0 161680744#0 161680744#1 266887586 266887587 266887592 141058757 266887585#0 266887593#0 20266190#0 20266190#2 72883541#1 20266189#0 44959795 -44959795 -20266189#0 -72883541#1 -20266190#2 -20266190#1 -266887593#3 -266887591 -141058757 111525330#0 350320331#0 266885723#0 161680739 27453586#0 39970992#0 39970992#1 266885718#0 266885718#1 266885720 32930763 32930762 266507537 27454740 27454730 266507538 266507539 27392718 27392719"/>
    </vehicle>
    <vehicle arrivalPos="82.85" arrivalSpeed="0.00" depart="56492.00" departPos="0.00" id="carIn118566:1" type="default_016">
        <route edges="380271165#0 161680736 28593900 266885722 266885721#0 161680744#0 161680744#1 266887586 266887587 266887592 141058757 266887585#0 266887593#0 20266190#0 -20266191 201926269#1 20588641#0 28124729#0 354967544#1 354967544#2 4268816#0 4268816#1 201956818#1 201956818#2 201956818#5 164051398 203971379#0 203971379#1 -54154922#1 -54154922#0 -24977473#2 164051410#0 164051410#1 32199969#0 32199969#2 32199969#5 32199989#0 32199989#1 323248156#0 25797090#1 201444272#0 201444272#1 201444272#3 29027727#0 29027727#4 29027727#6 29027727#7 29027727#9 152077572#0 152077572#2 152077572#2.79 54858974 542727960 30399316#0"/>
    </vehicle>
    <vehicle arrivalPos="21.93" arrivalSpeed="0.00" depart="56493.00" departPos="0.00" id="carIn22030:1" type="default_016">
        <route edges="380271165#0 161680736 28593900 266885722 266885721#0 161680744#0 161680744#1 266887586 266887587 266887592 141058757 266887585#0 266887593#0 20266190#0 20266190#2 -72883541#0 30054829#0 -201926265#4 -201926265#3 -201926265#2 -201926265#1 -201926265#0 -20266198 201278210#9 205182378#12 205182378#13 20975942#0 20975942#1 20975942#2 -20975950#1 -168245119#2 23184317 29458101 39443315#0 39443316#0 -32923863#1 151167768#0 151167768#1 172515814#0 172515814#1 305390324 -39649533 32923867#1 32923867#1.96 32923867#2 32923867#3 32923867#4 379723624#0 379723624#1 130996518#0 -233673423 145069386#0 32124563#0 32124563#3 24982688#0 24982688#0.12"/>
    </vehicle>