<?xml version="1.0" encoding="UTF-8"?>
<!-- generated on 2022-04-26 22:14:54.892794 by cutRoutes.py UNKNOWN
  options: ingolstadt_reduced.net.xml /home/momo/dateien/Studies/thesis/workspace/InTAS_reduced/scenario/routes/ped.rou.xml <doubleminus>routes-output routes_reduced/ped.rou.xml <doubleminus>orig-net ingolstadt.net.xml
-->
<routes xmlns:xsi="http://www.w3.org/2001/XMLSchema-instance" xsi:noNamespaceSchemaLocation="http://sumo.dlr.de/xsd/routes_file.xsd">
    <person depart="0.00" id="0">
        <walk edges="-26416599 -51244813#7 -51244813#8 40623117#0 -391208988 -33814393#0 -33814393#1 -33814393#3 -174609517#3 gneE19 33779209#1 151167768#1 200946853 54033673#0 54033673#0.28 54033673#2 131118468#1 131118468#0.16 131118468#0 -29458645.28 -29458645.13 -29458645 201278214#0 29458100#0 -37282688#1 -37282688#3 -37282688#4 37282688#5 -205182378#15 205182378#14 205182378#13 -205182378#12 -205182378#11 205182378#8 -205182378#7 205182378#6 -205182378#5 205182378#4"/>
    </person>
    <person depart="851.06" id="1">
        <walk edges="-201933879#6 201933877#0 -26339462#3 -391208988 -33814393#0 -33814393#1 -33814393#3 -174609517#3 -38508400#1 172517196 306086241 61940356 172515808 -24495188 -61940355 201969576#0 -201969576#1 -201969576#4 -201969576#5 -201969576#6 201969576#7 -29497467 124812856#0 124812856#1 201956821#0 201956821#1.68 124812857#0 104010475#0 104012170 27920078#1 27920078#0 -139230366 233675413#7"/>
    </person>
    <person depart="1440.00" id="2">
        <walk edges="90587322#0 -25192758 25188982#0 164051398 201956818#5 201956818#2 33279254#1 556434727 542630099 354967545#0.45 354967545#1 141058765#0 141058765#1 141058765#2 141058765#2.33 31624236#0 29458647#0 201278216#0 201278214#0 -29458645 -29458645.13 -29458645.28 131118468#0 131118468#0.16 131118468#1 54033673#2 54033673#0.28 54033673#0 200946853 151167768#1 33779209#1 gneE19 -174609517#3 -33814393#3 -33814393#1 -33814393#0 -391208988 40623117#0 -51244813#8 -51244813#7 -51244813#6 -51244813#5 -51244813#5.55 51244813#1"/>
    </person>
    <person depart="2233.94" id="3">
        <walk edges="201201950#0 201201950#1 201201950#2 201201950#3 201201950#4 386687239#0 386687239#1 202092676#0 386687235 42745545#0 42745545#2 42745545#3 42745545#4 42745545#5 42745545#5.128 42745545#6 30399662#1 30399662#0 29119850.70 29119850 248012815#0 248012815#1 30399325 30399322#1.56 54858973#1 54858973#0.62 54858973#0 4942408 -542727960 30399316#0"/>
    </person>
    <person depart="2906.36" id="4">
        <walk edges="-201933879#6 201933877#0 -26339462#3 -391208988 -33814393#0 -33814393#1 -33814393#3 -174609517#3 -38508400#1 172517196 306086241 61940356 172515808 -24495188 -61940355 201969576#0 -201969576#1 -201969576#4 -201969576#5 -151167738#0 -151167738#1 -151167738#2 -23442105#0 -23442105#1 -23442105#2 -23442105#3 -23442105#4 -38305646#0 -38305646#1 -38305646#2"/>
    </person>
    <person depart="4436.77" id="6">
        <walk edges="233675413#7 -139230366 27920078#0 27920078#1 104012170 104010475#0 124812857#0 201956821#1.68 201956821#0 124812856#1 124812856#0 -29497467 201969576#7 -201969576#6 -201969576#5 -201969576#4 -201969576#1 201969576#0 -61940355 -24495188 172515808"/>
    </person>
    <person depart="5040.00" id="7">
        <walk edges="266567303 24971737#0 24971737#3 -32199989#1 -32199989#0 -32199969#5 32199969#2 -32199969#1 -164051410#1 24989879 -42745460 -42745461#0 -42745461#1 -54154922#0 -54154922#1 26071515#0 26071515#1 4324820 164051399 201956817 33279254#1 556434727 542630099 354967545#0.45 354967545#1 141058765#0 141058765#1 141058765#2 141058765#2.33 31624236#0 29458647#0 201278216#0 201278214#0 -29458645 -29458645.13 -29458645.28 131118468#0 131118468#0.16 131118468#1 54033673#2 54033673#0.28 54033673#0 200946853 151167768#1 151167768#0 -32923863#1 -32923863#4 -266607804#0 -266607804#1 -266607804#2 -266607803#0 -266607803#1 -266607803#2 -266607792#4"/>
    </person>
    <person depart="6056.60" id="8">
        <walk edges="25149001#1 -25149001#0 -173169611#0 124812856#1 124812856#0 -29497467 201969576#7 -201969576#6 -201969576#5 -201969576#4 -201969576#1 201969576#0 -61940355 -24495188 172515808 61940356 306086241 172515812#0 305390333 172515814#1 172515814#0 151167768#1 151167768#0 -32923863#1 -32923863#4 -266607804#0 -266607804#1 -266607804#2 -266607803#0 -266607803#1 -266607803#2 -266607792#4"/>
    </person>
    <person depart="7249.90" id="10">
        <walk edges="233675413#7 -139230366 27920078#0 27920078#1 104012170 104010475#0 124812857#0 201956821#1.68 201956821#0 124812856#1 124812856#0 -29497467 201969576#7 -201969576#6 -201969576#5 -201969576#4 -201969576#1 201969576#0 -61940355 -24495188 172515808 61940356 306086241 172515812#0 305390333 172515814#1 172515814#0 151167768#1 151167768#0 -32923863#1 -32923863#4 -266607804#0 -266607804#1 -266607804#2 -266607803#0 -266607803#1 -266607803#2 -266607792#4"/>
    </person>
    <person depart="8001.19" id="11">
        <walk edges="205182378#4 -205182378#5 205182378#6 -205182378#7 205182378#8 -205182378#11 -205182378#12 205182378#13 205182378#14 -205182378#15 37282688#5 -37282688#4 -37282688#3 -37282688#1 29458100#0 201278214#0 -29458645 -29458645.13 -29458645.28 131118468#0 131118468#0.16 131118468#1 54033673#2 54033673#0.28 54033673#0 356952270 305390333 172515812#0 306086241 61940356 172515808 -24495188 -61940355 201969576#0 -201969576#1"/>
    </person>
    <person depart="8672.77" id="12">
        <walk edges="202070435#9 -202070435#8 -202070435#6.32 202070435#5 -202070435#4 -202070435#1 -202070435#0 201789798#1 201789798#0 201789799#2 201789799#1 201789799#0 -30482638#13 -30482638#11 30482638#10 -30482638#9 30482638#4 30482638#3 30482638#0 -201926266 90587320.64 90587320 -37480109 -90587323 -10425611#1 -10425611#0 -10425611#0.35 -164051429#1 -164051429#0 161678034#2.46 161678034#2.30 161678034#2 -161678034#1 161678034#0 51857519#0 -32350852#4 -32350852#3 32350852#0 -145069366#2 -145069366#3 -24982688#1.52 -24982688#1 -24982688#2 -24982688#4 145069373#0 145069391 145069286#0 32229741 32229742#1 32229742#3 32229742#4 32229742#5 145069311#0 145069316#0 -145069316#1 145069313#2 -103512667#2 -103512667#1 -103512667#0 gneE3 18909064 -33102476 -36689751#2 201956811#0 124812857#0 -164051413 -653473569#5 -653473569#4"/>
    </person>
    <person depart="9360.00" id="13">
        <walk edges="23184252#0 48742425#0 48742425#1 48742425#2 32881076#0 31624236#0 141058765#2.33 141058765#2 141058765#1 141058765#0 354967545#1 354967545#0.45 542630099 201953160#3 201953160#0 140834255#0 -140834262#1 -26471933 -164051438#0.62 -164051438#0.46 164051438#0.80"/>
    </person>
    <person depart="10800.00" id="15">
        <walk edges="-4268967#1 -26471933 -140834262#1 140834255#0 201953160#0 201953160#3 542630099 354967545#0.45 354967545#1 141058765#0 141058765#1 141058765#2 141058765#2.33 31624236#0 29458647#0 201278216#0 201278214#0 -29458645 -29458645.13 -29458645.28 131118468#0 131118468#0.16 131118468#1 54033673#2 54033673#0.28 54033673#0 200946853 151167768#1 151167768#0 -32923863#1 -32923863#4 -266607804#0 -266607804#1 -266607804#2 -266607803#0 -266607803#1 -266607803#2 -266607792#4"/>
    </person>
    <person depart="11520.00" id="16">
        <walk edges="30399319 152077572#2.79 152077572#2 152077572#0 29238188#3 -29238188#2 -29238188#0 -137463478#3 -137463478#2 -137463478#1 -137463478#0 25796398#0 137463477#0 -137463475#1 -116765457#0 -116765457#1 -28132014#0 -28132014#2 -42745460 -42745461#0 -42745461#1 -54154922#0 -54154922#1 26071515#0 26071515#1 4324820 164051399 201956817 33279254#1 556434727 542630099 354967545#0.45 354967545#1 141058765#0 141058765#1 141058765#2 141058765#2.33 31624236#0 29458647#0 201278216#0 201278214#0 -29458645 -29458645.13 -29458645.28 131118468#0 131118468#0.16 131118468#1 54033673#2 54033673#0.28 54033673#0 200946853 151167768#1 33779209#1 gneE19 -174609517#3 -33814393#3 -33814393#1 -33814393#0 -391208988 -26339462#3 201933877#0 -201933879#6"/>
    </person>
    <person depart="12240.00" id="17">
        <walk edges="391208988 -391208988 -33814393#0 -33814393#1 -33814393#3 -174609517#3 -38508400#1 172517196 306086241 61940356 172515808 -24495188 -61940355 201969576#0 -201969576#1 -201969576#4 -201969576#5 -201969576#6 201969576#7 -29497467 124812856#0 124812856#1 201956821#0 201956821#1.68 124812857#0 104010475#0 104012170 285716192#0.83 285716192#0 -32124743 -32124744 -201089423#2"/>
    </person>
    <person depart="12960.00" id="18">
        <walk edges="-30435490 52572753#0 77670297#0 -31773007 24762523#1 24762523#0 144659489 144659495 -24692391#1 -24692391#3 -26973015 145069303#4 -145069303#3 145069303#1 -145069303#0 -11014139#1 -24991573 24991571 64464432#2 64464432#1 64464408 64464399#1 64464399#0 64464430 25955089 64464420 30404130#1 30404130#0 -201444272#0 -201444272#2 201444272#3 29027727#0 -29027727#5 -29027727#6 29027727#7 29027727#9 152077572#0 152077572#2 152077572#2.79 -54858974 -542727960 30399316#0"/>
    </person>
    <person depart="13712.01" id="19">
        <walk edges="-38305646#2 -38305646#1 -38305646#0 -23442105#4 -23442105#3 -23442105#2 -23442105#1 -23442105#0 -151167738#2 -151167738#1 -151167738#0 -201969576#5 -201969576#4 -201969576#1 201969576#0 -61940355 -24495188 172515808 61940356 306086241 172515812#0 305390333 172515814#1 172515814#0 151167768#1 151167768#0 -32923863#1 -32923863#4 -266607804#0 -266607804#1 -266607804#2 -266607803#0 -266607803#1 -266607803#2 -266607792#4"/>
    </person>
    <person depart="14499.91" id="20">
        <walk edges="205182378#4 -205182378#5 205182378#6 -205182378#7 205182378#8 -205182378#11 -205182378#12 205182378#13 205182378#14 -205182378#15 37282688#5 -37282688#4 -37282688#3 -37282688#1 29458100#0 201278214#0 -29458645 -29458645.13 -29458645.28 131118468#0 131118468#0.16 131118468#1 54033673#2 54033673#0.28 54033673#0 200946853 151167768#1 33779209#1 gneE19 -174609517#3 -33814393#3 -33814393#1 -33814393#0 -391208988 40623117#0 -51244813#8 -51244813#7 -51244813#6 -51244813#5 -51244813#5.55 51244813#1"/>
    </person>
    <person depart="15120.00" id="21">
        <walk edges="-201926265#3 201926265#2 -201926265#1 -201926265#0 23184252#1 -23184252#0 48742425#0 48742425#1 48742425#2 32881076#0 31624236#0 141058765#2.33 141058765#2 141058765#1 141058765#0 354967545#1 354967545#0.45 542630099 556434727 33279254#1 201956817 164051399 4324820 26071515#1 26071515#0 -54154922#1 -54154922#0 -42745461#1 -42745461#0 -42745460 -28132014#2 -28132014#0 -24978651 -115082348#0 -115082348#2 -115082348#3 -115082348#5 257907858#0 257907859#1 257907859#0 26451152#0 202070427#0 -25796375#0 33280102#2 33280102#1 33280102#0 -33280103#0 33280103#1 -33280103#2 -33280103#3 33280103#4 33280103#4.68 -97304242#1 97304242#2 -97304242#4"/>
    </person>
    <person depart="15896.07" id="22">
        <walk edges="202070435#9 -202070435#8 -202070435#6.32 202070435#5 -202070435#4 -202070435#1 -202070435#0 201789798#1 201789798#0 201789799#2 201789799#1 -201789799#0 -201789797#0 -25597196#12 -25597196#11 25597196#7 153692837#3 -153692837#2 -153692837#1 175761129#3 202070429#3 -202070429#2 -202070429#1 202070429#0 151167728 26451152#0 202070427#0 -25796375#0 25796375#1 25796375#2 -25638527 25901702 25638529 -25895961 -274823622#3 -274823622#2 -274823622#1 -274823622#0 -274823622#0.68 -31342351#1 23009600#0 -23009600#2 -153220338#1"/>
    </person>
    <person depart="16658.36" id="23">
        <walk edges="51244813#1 -51244813#5.55 -51244813#5 -51244813#6 -51244813#7 -51244813#8 40623117#0 -391208988 -33814393#0 -33814393#1 -33814393#3 -174609517#3 gneE19 33779209#1 151167768#1 200946853 54033673#0 54033673#0.28 54033673#2 131118468#1 131118468#0.16 131118468#0 -29458645.28 -29458645.13 -29458645 201278214#0 201278216#0 29458647#0 31624236#0 141058765#2.33 141058765#2 141058765#1 141058765#0 354967545#1 354967545#0.45 542630099 556434727 33279254#1 201956817 164051399 4324820 26071515#1 26071515#0 -54154922#1 -54154922#0 -42745461#1 -42745461#0 -42745460 -28132014#2 -28132014#0 -24978651 -115082348#0 -115082348#2 -115082348#3 -115082348#5 257907858#0 257907859#1 257907859#0 26451152#0 202070427#0 -25796375#0 33280102#2 33280102#1 33280102#0 -33280103#0 33280103#1 -33280103#2 -33280103#3 33280103#4 33280103#4.68 -97304242#1 97304242#2 -97304242#4"/>
    </person>
    <person depart="17280.00" id="24">
        <walk edges="40888354#2 -40888354#2 -53396619#3 -53396619#4 -201950247#4 -201950247#5 -201950247#6 -40888350 -24634414#0 201201950#4 386687239#0 386687239#1 202092676#0 386687235 42745545#0 42745545#2 42745545#3 42745545#4 42745545#5 42745545#5.128 42745545#6 30399662#1 30399662#0 29119850.70 29119850 248012815#0 248012815#1 30399325 30399322#1.56 30399322#2 30399322#3.66 30399319 -152077572#2"/>
    </person>
    <person depart="18111.96" id="25">
        <walk edges="201933878#4 -201933878#3 -201933878#2 -201933878#1 -201933877#3"/>
    </person>
    <person depart="18360.00" id="26">
        <walk edges="115881039 -115881043#4 -115881043#2 -115881043#0 201953160#0 201953160#3 556434727 33279254#1 201956818#2 201956818#5 164051398 25188982#0 -25192758 203971378#0 -37480109 90587320 90587320.64 -201926266 -25380714#1 -25597196#4 -25596855#3 -25596855#1 25596855#0 -25596974#0"/>
    </person>
    <person depart="19114.51" id="28">
        <walk edges="233675413#7 -139230366 27920078#0 27920078#1 104012170 104010475#0 124812857#0 201956821#1.68 201956821#0 124812856#1 124812856#0 -29497467 201969576#7 -201969576#6 -201969576#5 -201969576#4 -201969576#1 201969576#0 -61940355 -24495188 172515808 61940356 306086241 172515812#0 305390333 356952270 54033673#0 54033673#0.28 54033673#2 131118468#1 131118468#0.16 131118468#0 -29458645.28 -29458645.13 -29458645 201278214#0 29458100#0 -37282688#1 -37282688#3 -37282688#4 37282688#5 -205182378#15 205182378#14 205182378#13 -205182378#12 -201278210#9 -201278210#8 -201278210#6 -20405617#0 -20405617#1 -20405617#2 -20405617#3 -20405617#4 20314044#1"/>
    </person>
    <person depart="19509.61" id="29">
        <walk edges="-173169611#4 -173169611#3 -173169611#0 201956821#0 201956821#1.68 201956811#0 -36689751#2 -33102476 18909064 gneE3 -103512667#0 -103512667#1 -103512667#2 145069313#2 -145069316#1 145069316#0 145069311#0 32229742#5 32229742#4 32229742#3 32229742#1 32229741 145069286#0 145069391 145069373#0 -24982688#4 -24982688#2 -24982688#1 -24982688#1.52 -145069366#3 -145069366#2 32350852#0 -32350852#3 -32350852#4 51857519#0 161678034#0 -161678034#1 161678034#2 161678034#2.30 161678034#2.46 -164051429#0 -164051429#1 -10425611#0.35 -10425611#0 -10425611#1 -90587323 -37480109 90587320 90587320.64 -201926266 30482638#0 30482638#3 -25640150 92026769#12 92026769#6 -92026769#5"/>
    </person>
    <person depart="20160.00" id="31">
        <walk edges="-51856496#4 51856496#5 -51856496#7 51856496#8 -204388144#0 -204388144#1 18909064 gneE3 -145069347#2 29002239 88903284 145069350#1 145069350#0 29458096 29238013 -51856499 -51856498 -51856497 -29458095 -379514686 -29238182 -29238183#0 -29238184#1 -29238020#0 -51856500 29238022 -80369245 -80369229 -80369257 -80369240 -32200415#1 -32200414#1 29027839#0 -29027839#2 -31343367#1 29048562#0 -11014139#1 -24991573 24991571 64464432#2 64464432#1 64464408 64464399#1 64464399#0 64464430 25955089 64464420 266567301#1 266567304#0 305390325#3 305390325#0 305495773#0 266507551 266507552#0 257907859#1 257907859#0 26451152#0 202070427#0 -25796375#0 33280102#2 33280102#1 33280102#0 -33280103#0 33280103#1 -33280103#2 -33280103#3 33280103#4 33280103#4.68 -97304242#1 25626605#0 25626605#1 25626605#2 25626605#4 60064938#0 -28133177#1"/>
    </person>
    <person depart="20682.17" id="32">
        <walk edges="25149001#1 -25149001#0 -173169611#0 124812856#1 124812856#0 -29497467 201969576#7 -201969576#6 -201969576#5 -201969576#4 -201969576#1 201969576#0 -61940355 -24495188 172515808 61940356 306086241 172517196 -38508400#1 -174609517#3 -33814393#3 -33814393#1 -33814393#0 -391208988 -26339462#3 201933877#0 -201933879#6"/>
    </person>
    <person depart="21037.20" id="33">
        <walk edges="51244813#1 -51244813#5.55 -51244813#5 -51244813#6 -51244813#7 -51244813#8 40623117#0 -391208988 -33814393#0 -33814393#1 -33814393#3 -174609517#3 -38508400#1 172517196 306086241 61940356 172515808 -24495188 -61940355 201969576#0 -201969576#1 -201969576#4 -201969576#5 -201969576#6 201969576#7 -29497467 124812856#0 124812856#1 -173169611#0 -25149001#0 25149001#1"/>
    </person>
    <person depart="21497.99" id="34">
        <walk edges="233675413#7 -139230366 27920078#0 27920078#1 104012170 104010475#0 124812857#0 201956821#1.68 201956821#0 124812856#1 124812856#0 -29497467 201969576#7 -201969576#6 -201969576#5 -201969576#4 -201969576#1 201969576#0 -61940355 -24495188 172515808 61940356 306086241 172517196 -38508400#1 -174609517#3 -33814393#3 -33814393#1 -33814393#0 -391208988 40623117#0 -51244813#8 -51244813#7 -51244813#6 -51244813#5 -51244813#5.55 51244813#1"/>
    </person>
    <person depart="21840.00" id="36">
        <walk edges="-54169231#2 -26677216#1 -26677216#2 26677216#3 23166741#2 -24634414#0 -24634414#1 24634414#2 -24634414#3 -24634414#4 24634414#5 24634414#5.51 -32999434#1 201089423#0 201089423#2 -32124744 -32124743 285716192#0 285716192#0.83 104012170 104010475#0 124812857#0 201956821#1.68 201956821#0 -173169611#0 -25149001#0 -25188977"/>
    </person>
    <person depart="22226.82" id="37">
        <walk edges="205182378#4 -205182378#5 205182378#6 -205182378#7 205182378#8 -205182378#11 -205182378#12 205182378#13 205182378#14 -205182378#15 37282688#5 -37282688#4 -37282688#3 -37282688#1 29458100#0 201278214#0 -29458645 -29458645.13 -29458645.28 131118468#0 131118468#0.16 131118468#1 54033673#2 54033673#0.28 54033673#0 356952270 305390333 172515812#0 306086241 61940356 172515808 -24495188 -61940355 201969576#0 -201969576#1 -201969576#4 -201969576#5 -201969576#6 201969576#7 -29497467 124812856#0 124812856#1 201956821#0 201956821#1.68 124812857#0 104010475#0 104012170 27920078#1 27920078#0 -139230366 233675413#7"/>
    </person>
    <person depart="22320.00" id="38">
        <walk edges="26471752#0 -32923867#3 -32923867#4 -379723624#0 -379723624#1 130996518#0 -233673423 -32201044#2 -32201044#1 145069336#0 145069336#1 145069336#2 145069280#0 145069391 145069286#0 32229741 32229742#1 32229742#3 32229742#4 32229742#5 145069311#0 145069316#0 -145069316#1 145069313#2 -103512667#2 -103512667#1 -103512667#0 gneE3 18909064 -33102476 -36689751#2 201956811#0 124812857#0 -164051413 -653473569#5 -653473569#4"/>
    </person>
    <person depart="22560.00" id="39">
        <walk edges="-24982688#1 -24982688#2 -24982688#4 -32201172 62798408 -145069357 -103671248 gneE154 145069272 -29119898 -32924041#3 104236369 -108310253 29458096 51856495#0 -29458097#2 32978638#1 -32978638#0 51857518#1 168702040#1 168702040#2 168702040#3 168702040#4 -315358253#3 -315358253#2 -315358253#1 315358253#0 -315358248#1 315358245.27 202092675 -4942389#1 -4942389#0 -136436466 -315358251#1 315358242#3 -201950247#8"/>
    </person>
    <person depart="23040.00" id="41">
        <walk edges="-92026769#11 92026769#12 -25640150 30482638#3 30482638#0 -201926266 90587320.64 90587320 -37480109 203971378#0 -25192758 25188982#0 164051398 201956818#5 201956818#2 33279254#1 556434727 542630099 354967545#0.45 354967545#1 141058765#0 141058765#1 141058765#2 141058765#2.33 31624236#0 32881076#0 48742425#2 48742425#1 48742425#0 -205182378#15 205182378#14 205182378#13 -205182378#12 -205182378#11 205182378#8 -205182378#7 205182378#6 -205182378#5 205182378#4"/>
    </person>
    <person depart="23352.77" id="42">
        <walk edges="202070435#9 -202070435#8 -202070435#6.32 202070435#5 -202070435#4 -202070435#1 -202070435#0 201789798#1 201789798#0 201789799#2 201789799#1 -201789799#0 -201789797#0 -25597196#12 -25597196#11 25597196#7 153692837#3 -153692837#2 -153692837#1"/>
    </person>
    <person depart="23569.48" id="43">
        <walk edges="202070435#9 -202070435#8 -202070435#6.32 202070435#5 -202070435#4 -202070435#1 -202070435#0 201789798#1 201789798#0 201789799#2 201789799#1 -201789799#0 -30482638#13 -30482638#11 30482638#10 -30482638#9 30482638#4 30482638#3 30482638#0 -201926266 90587320.64 90587320 -37480109 203971378#0 -25192758 25188982#0 164051398 201956818#5 201956818#2 33279254#1 556434727 542630099 354967545#0.45 354967545#1 141058765#0 141058765#1 141058765#2 141058765#2.33 31624236#0 29458647#0 201278216#0 201278214#0 -29458645 -29458645.13 -29458645.28 131118468#0 131118468#0.16 131118468#1 54033673#2 54033673#0.28 54033673#0 200946853 151167768#1 151167768#0 -32923863#1 -32923863#4 -266607804#0 -266607804#1 -266607804#2 -266607803#0 -266607803#1 -266607803#2 -266607792#4"/>
    </person>
    <person depart="23793.74" id="44">
        <walk edges="20314044#1 -20405617#4 -20405617#3 -20405617#2 -20405617#1 -20405617#0 -201278210#6 -201278210#8 -201278210#9 -205182378#12 205182378#13 205182378#14 -205182378#15 48742425#0 48742425#1 48742425#2 32881076#0 31624236#0 141058765#2.33 141058765#2 141058765#1 141058765#0 354967545#1 354967545#0.45 542630099 556434727 33279254#1 201956817 164051399 4324820 26071515#1 26071515#0 -54154922#1 -54154922#0 -42745461#1 -42745461#0 -42745460 24989879 -164051410#1 -32199969#1 32199969#2 -32199969#5 -32199989#0 -32199989#1 323248156#0 266567301#1 64464420 24989982#0 165520703#0"/>
    </person>
    <person depart="24181.24" id="45">
        <walk edges="51244813#1 -51244813#5.55 -51244813#5 -51244813#6 -51244813#7 -51244813#8 40623117#0 -391208988 -33814393#0 -33814393#1 -33814393#3 -174609517#3 gneE19 33779209#1 151167768#1 200946853 54033673#0 54033673#0.28 54033673#2 131118468#1 131118468#0.16 131118468#0 -29458645.28 -29458645.13 -29458645 201278214#0 201278216#0 29458647#0 31624236#0 141058765#2.33 141058765#2 141058765#1 141058765#0 354967545#1 354967545#0.45 542630099 556434727 33279254#1 201956817 164051399 4324820 26071515#1 26071515#0 -54154922#1 -54154922#0 -42745461#1 -42745461#0 -42745460 -28132014#2 -28132014#0 -24978651 -115082348#0 -115082348#2 -115082348#3 -115082348#5 257907858#0 257907859#1 257907859#0 26451152#0 202070427#0 -25796375#0 33280102#2 33280102#1 33280102#0 -33280103#0 33280103#1 -33280103#2 -33280103#3 33280103#4 33280103#4.68 -97304242#1 97304242#2 -97304242#4"/>
    </person>
    <person depart="24240.00" id="46">
        <walk edges="24634506#0 -160314346#1 -160314345#0 -160314345#1 160314345#2 160314345#3 -160314345#4 315358245.27 202092675 -4942389#1 -4942389#0 386687235 42745545#0 42745545#2 42745545#3 42745545#4 42745545#5 42745545#5.128 42745545#6 30399663#0 137246371#2.17 137246371#2 137246371#0 -138002149#2 -138002149#1"/>
    </person>
    <person depart="24480.00" id="47">
        <walk edges="-53396619#2 -53396619#3 -53396619#4 -53396619#5 -53396619#6 26677216#3 23166741#5"/>
    </person>
    <person depart="24720.00" id="48">
        <walk edges="29119849#0 29119849#1 29119850 29119850.70 30399662#0 30399662#1 -148050455#2 148050455#1 148050452#0 148050451#0 -266565295#3 -266565295#4 -266565295#5 32999435 32124637#0 32124637#1 51857518#1 -32978638#0 32978638#1 -29458097#2 51856495#0 29458096 -108310253 104236369 -32924041#3 -29119898 145069272 gneE154 -103671248 -145069357 62798408 -32201172 -145069294#1 32201042 32201044#0 -32201044#1 -32201044#2 -233673423 130996518#0 -379723624#1 -379723624#0 -32923867#4 -32923867#3 -32923867#2 32923867#1.96 32923867#1 -32923867#0 130996520 130996520.58 172519650 172515814#1 172515814#0 151167768#1 151167768#0 -32923863#1 -32923863#4 -266607804#0 -266607804#1 -266607804#2 -266607803#0 -266607803#1 -266607803#2 -266607792#4"/>
    </person>
    <person depart="24960.00" id="49">
        <walk edges="-54154921#3 90587320.64 90587320 -37480109 -90587323 -10425611#1 -10425611#0 -10425611#0.35 -164051429#1 -164051429#0 161678034#2.46 161678034#2.30 161678034#2 -161678034#1 161678034#0 51857519#0 -32350852#4 -32350852#3 32350852#0 -145069366#2 -145069366#3 -24982688#1.52 -24982688#1 -24982688#2 -24982688#4 145069373#0 145069391 145069286#0 32229741 32229742#1 32229742#3 32229742#4 32229742#5 145069311#0 145069316#0 -145069316#1 145069313#2 -103512667#2 -103512667#1 -103512667#0 gneE3 18909064 -33102476 -36689751#2 201956811#0 124812857#0 -164051413 -653473569#5 -653473569#4"/>
    </person>
    <person depart="29091.41" id="50">
        <walk edges="-653473569#4 -653473569#5 -164051413 104010475#0 104012170 285716192#0.83 285716192#0 -32124743 -32124744 201089423#2 201089423#0 -32999434#1 32999110#0 32999110#1 168702040#4 168702040#3 168702040#2 168702040#1 32124637#1 32124637#0 32999435 -266565295#5 -266565295#4 -266565295#3 148050451#0 148050452#0 148050455#1 -148050455#2 30399662#1 30399662#0 29119850.70 29119850 248012815#0 248012815#1 30399325 30399322#1.56 54858973#1 54858973#0.62 54858973#0 4942408 31342349#3 31342349#0 23009600#0 -23009600#2 -29205273#0"/>
    </person>
    <person depart="29160.00" id="51">
        <walk edges="23166741#0 386687242 -136436466 -4942389#0 -4942389#1 202092675 315358245.27 -315358248#1 315358253#0 -315358253#1 -315358253#2 -315358253#3 168702040#4 168702040#3 168702040#2 168702040#1 51857518#1 -32978638#0 32978638#1 -29458097#2 51856495#0 29458096 -108310253 104236369 -32924041#3 -29119898 145069272 gneE154 -103671248 -145069357 62798408 -32201172 -145069294#1 32201042 32201044#0 -32201044#1 -32201044#2 -233673423 130996518#0 -379723624#1 -379723624#0 -32923867#4 -32923867#3 -32923867#2 32923867#1.96 32923867#1 -32923867#0 130996520 130996520.58 172519650 356952270 54033673#0 54033673#0.28 54033673#2 131118468#1 131118468#0.16 131118468#0 -29458645.28 -29458645.13 -29458645 201278214#0 29458100#0 -37282688#1 -37282688#3 -37282688#4 37282688#5 -205182378#15 205182378#14 205182378#13 -205182378#12 -201278210#9 -201278210#8 -201278210#6 -201278210#5 -201278210#4"/>
    </person>
    <person depart="29403.32" id="52">
        <walk edges="51244813#1 -51244813#5.55 -51244813#5 -51244813#6 -51244813#7 -51244813#8 40623117#0 -391208988 -33814393#0 -33814393#1 -33814393#3 -174609517#3 gneE19 33779209#1 151167768#1 200946853 54033673#0 54033673#0.28 54033673#2 131118468#1 131118468#0.16 131118468#0 -29458645.28 -29458645.13 -29458645 201278214#0 29458100#0 -37282688#1 -37282688#3 -37282688#4 37282688#5 -205182378#15 205182378#14 205182378#13 -205182378#12 -205182378#11 205182378#8 -205182378#7 205182378#6 -205182378#5 205182378#4"/>
    </person>
    <person depart="29520.00" id="53">
        <walk edges="-61940356 61940356 306086241 172517196 -38508400#1 -174609517#3 -33814393#3 -33814393#1 -33814393#0 -391208988 40623117#0 -51244813#8 -51244813#7 -51244813#6 -51244813#5 -51244813#5.55 51244813#1"/>
    </person>
    <person depart="29700.00" id="54">
        <walk edges="-54169231#2 -54169231#1"/>
    </person>
    <person depart="30051.73" id="55">
        <walk edges="-266607792#4 -266607803#2 -266607803#1 -266607803#0 -266607804#2 -266607804#1 -266607804#0 -32923863#4 -32923863#1 151167768#0 151167768#1 172515814#0 172515814#1 172519650 130996520.58 130996520 -32923867#0 32923867#1 32923867#1.96 -32923867#2 -32923867#3 -32923867#4 -379723624#0 -379723624#1 130996518#0 -233673423 -32201044#2 -32201044#1 32201044#0 32201042 -145069294#1 -32201172 62798408 -145069357 -103671248 gneE154 145069272 -29119898 -32924041#3 104236369 -108310253 29458096 51856495#0 -29458097#2 32978638#1 -32978638#0 51857518#1 32124637#1 32124637#0 32999435 -266565295#5 -266565295#4 -266565295#3 148050451#0 148050452#0 -148050455#0 148050457#0 -148050457#2"/>
    </person>
    <person depart="30184.35" id="56">
        <walk edges="30399316#0 -542727960 4942408 54858973#0 54858973#0.62 54858973#1 30399322#1.56 30399325 248012815#1 248012815#0 29119850 29119850.70 30399662#0 30399662#1 42745545#6 42745545#5.128 42745545#5 42745545#4 42745545#3 42745545#2 42745545#0 386687235 202092676#0 386687239#1 386687239#0 201201950#4 201201950#3 201201950#2 201201950#1 201201950#0"/>
    </person>
    <person depart="30433.17" id="57">
        <walk edges="-201933879#6 201933877#0 -26339462#3 -391208988 -33814393#0 -33814393#1 -33814393#3 -174609517#3 gneE19 33779209#1 151167768#1 200946853 54033673#0 54033673#0.28 54033673#2 131118468#1 131118468#0.16 131118468#0 -29458645.28 -29458645.13 -29458645 201278214#0 201278216#0 29458647#0 31624236#0 141058765#2.33 141058765#2 141058765#1 141058765#0 354967545#1 354967545#0.45 542630099 556434727 33279254#1 201956817 164051399 4324820 26071515#1 26071515#0 -54154922#1 -54154922#0 -42745461#1 -42745461#0 -42745460 -28132014#2 -28132014#0 -116765457#1 -116765457#0 -137463475#1 137463477#0 25796398#0 -137463474#0 -137463474#1 25796964#1"/>
    </person>
    <person depart="30600.00" id="59">
        <walk edges="379514688 -29458095 -51856497 -51856498 -51856499 29238013 29458096 -108310253 104236369 -32924041#3 -29119898 145069272 gneE154 -103671248 -145069357 62798408 -32201172 -145069294#1 32201042 32201044#0 -32201044#1 -32201044#2 -233673423 130996518#0 -379723624#1 -379723624#0 -32923867#4 -32923867#3 -32923867#2 32923867#1.96 32923867#1 -32923867#0 130996520 130996520.58 172519650 172515814#1 172515814#0 151167768#1 151167768#0 58295043"/>
    </person>
    <person depart="30780.00" id="60">