<?xml version="1.0" encoding="UTF-8"?>

<!-- generated on 2022-07-22 08:31:11 by Eclipse SUMO netedit Version 1.12.0
<configuration xmlns:xsi="http://www.w3.org/2001/XMLSchema-instance" xsi:noNamespaceSchemaLocation="http://sumo.dlr.de/xsd/netconvertConfiguration.xsd">

    <input>
        <sumo-net-file value="5GoIng.net.xml"/>
    </input>

    <output>
        <output-file value="5GoIng.net.xml"/>
    </output>

    <processing>
        <geometry.min-radius.fix.railways value="false"/>
        <geometry.max-grade.fix value="false"/>
        <offset.disable-normalization value="true"/>
        <lefthand value="false"/>
    </processing>

    <junctions>
        <no-turnarounds value="true"/>
        <junctions.corner-detail value="5"/>
        <junctions.limit-turn-speed value="5.5"/>
        <rectangular-lane-cut value="false"/>
    </junctions>

    <pedestrian>
        <walkingareas value="false"/>
    </pedestrian>

    <netedit>
        <additional-files value="/home/lobo/Development/5GoIng/busStop.add.xml"/>
        <route-files value="/home/lobo/Development/5GoIng/busroute.rou.xml"/>
    </netedit>

    <report>
        <aggregate-warnings value="5"/>
    </report>

</configuration>
-->

<net version="1.9" junctionCornerDetail="5" limitTurnSpeed="5.50" xmlns:xsi="http://www.w3.org/2001/XMLSchema-instance" xsi:noNamespaceSchemaLocation="http://sumo.dlr.de/xsd/net_file.xsd">

    <location netOffset="-680082.24,-5400237.80" convBoundary="1787.40,2777.23,2203.24,3053.40" origBoundary="11.450125,48.728591,11.489154,48.759701" projParameter="+proj=utm +zone=32 +ellps=WGS84 +datum=WGS84 +units=m +no_defs"/>

    <type id="highway.bridleway" priority="1" numLanes="1" speed="2.78" allow="pedestrian" oneway="1" width="2.00"/>
    <type id="highway.bus_guideway" priority="1" numLanes="1" speed="27.78" allow="bus" oneway="1"/>
    <type id="highway.cycleway" priority="1" numLanes="1" speed="8.33" allow="bicycle" oneway="0" width="1.00"/>
    <type id="highway.footway" priority="1" numLanes="1" speed="2.78" allow="pedestrian" oneway="1" width="2.00"/>
    <type id="highway.ford" priority="1" numLanes="1" speed="2.78" allow="army" oneway="0"/>
    <type id="highway.living_street" priority="2" numLanes="1" speed="2.78" disallow="tram rail_urban rail rail_electric rail_fast ship" oneway="0"/>
    <type id="highway.motorway" priority="14" numLanes="2" speed="39.44" allow="private emergency authority army vip passenger hov taxi bus coach delivery truck trailer motorcycle evehicle custom1 custom2" oneway="1"/>
    <type id="highway.motorway_link" priority="9" numLanes="1" speed="22.22" allow="private emergency authority army vip passenger hov taxi bus coach delivery truck trailer motorcycle evehicle custom1 custom2" oneway="1"/>
    <type id="highway.path" priority="1" numLanes="1" speed="2.78" allow="pedestrian bicycle" oneway="0" width="2.00"/>
    <type id="highway.pedestrian" priority="1" numLanes="1" speed="2.78" allow="pedestrian" oneway="1" width="2.00"/>
    <type id="highway.primary" priority="12" numLanes="2" speed="27.78" disallow="tram rail_urban rail rail_electric rail_fast ship" oneway="0"/>
    <type id="highway.primary_link" priority="7" numLanes="1" speed="22.22" disallow="tram rail_urban rail rail_electric rail_fast ship" oneway="0"/>
    <type id="highway.raceway" priority="15" numLanes="2" speed="83.33" allow="vip" oneway="0"/>
    <type id="highway.residential" priority="3" numLanes="1" speed="13.89" disallow="tram rail_urban rail rail_electric rail_fast ship" oneway="0"/>
    <type id="highway.secondary" priority="11" numLanes="1" speed="27.78" disallow="tram rail_urban rail rail_electric rail_fast ship" oneway="0"/>
    <type id="highway.secondary_link" priority="6" numLanes="1" speed="22.22" disallow="tram rail_urban rail rail_electric rail_fast ship" oneway="0"/>
    <type id="highway.service" priority="1" numLanes="1" speed="5.56" allow="pedestrian delivery bicycle" oneway="0"/>
    <type id="highway.stairs" priority="1" numLanes="1" speed="1.39" allow="pedestrian" oneway="1" width="2.00"/>
    <type id="highway.step" priority="1" numLanes="1" speed="1.39" allow="pedestrian" oneway="1" width="2.00"/>
    <type id="highway.steps" priority="1" numLanes="1" speed="1.39" allow="pedestrian" oneway="1" width="2.00"/>
    <type id="highway.tertiary" priority="10" numLanes="1" speed="22.22" disallow="tram rail_urban rail rail_electric rail_fast ship" oneway="0"/>
    <type id="highway.tertiary_link" priority="5" numLanes="1" speed="22.22" disallow="tram rail_urban rail rail_electric rail_fast ship" oneway="0"/>
    <type id="highway.track" priority="1" numLanes="1" speed="5.56" allow="pedestrian motorcycle moped bicycle" oneway="0"/>
    <type id="highway.trunk" priority="13" numLanes="2" speed="27.78" disallow="pedestrian bicycle tram rail_urban rail rail_electric rail_fast ship" oneway="0"/>
    <type id="highway.trunk_link" priority="8" numLanes="1" speed="22.22" disallow="pedestrian bicycle tram rail_urban rail rail_electric rail_fast ship" oneway="0"/>
    <type id="highway.unclassified" priority="4" numLanes="1" speed="13.89" disallow="tram rail_urban rail rail_electric rail_fast ship" oneway="0"/>
    <type id="highway.unsurfaced" priority="1" numLanes="1" speed="8.33" disallow="tram rail_urban rail rail_electric rail_fast ship" oneway="0"/>
    <type id="railway.highspeed" priority="21" numLanes="1" speed="69.44" allow="rail_fast" oneway="1"/>
    <type id="railway.light_rail" priority="19" numLanes="1" speed="27.78" allow="rail_urban" oneway="1"/>
    <type id="railway.preserved" priority="16" numLanes="1" speed="27.78" allow="rail" oneway="1"/>
    <type id="railway.rail" priority="20" numLanes="1" speed="44.44" allow="rail" oneway="1"/>
    <type id="railway.subway" priority="18" numLanes="1" speed="27.78" allow="rail_urban" oneway="1"/>
    <type id="railway.tram" priority="17" numLanes="1" speed="13.89" allow="tram" oneway="1"/>

    <edge id=":2117911027_0" function="internal">
        <lane id=":2117911027_0_0" index="0" disallow="pedestrian tram rail_urban rail rail_electric rail_fast ship" speed="13.89" length="3.82" shape="1988.17,2904.95 1987.71,2903.98 1987.05,2903.47 1986.39,2902.97 1985.92,2901.99"/>
    </edge>
    <edge id=":2117911027_1" function="internal">
        <lane id=":2117911027_1_0" index="0" disallow="pedestrian tram rail_urban rail rail_electric rail_fast ship" speed="6.54" length="4.40" shape="1989.04,2901.29 1989.55,2902.03 1990.54,2902.76 1991.65,2903.39 1992.54,2903.83"/>
    </edge>
    <edge id=":2117911028_0" function="internal">
        <lane id=":2117911028_0_0" index="0" disallow="tram rail_urban rail rail_electric rail_fast ship" speed="19.45" length="1.91" shape="1984.63,2931.63 1984.08,2931.50 1983.70,2931.38 1983.32,2931.30 1982.76,2931.27"/>
    </edge>
    <edge id=":2117911028_1" function="internal">
        <lane id=":2117911028_1_0" index="0" disallow="tram rail_urban rail rail_electric rail_fast ship" speed="15.28" length="1.10" shape="1982.70,2928.07 1983.81,2928.14"/>
    </edge>
    <edge id=":251021099_0" function="internal">
        <lane id=":251021099_0_0" index="0" disallow="pedestrian tram rail_urban rail rail_electric rail_fast ship" speed="6.05" length="4.96" shape="1984.01,2928.12 1984.88,2927.83 1985.69,2927.14 1986.43,2926.05 1987.12,2924.55"/>
    </edge>
    <edge id=":251021099_1" function="internal">
        <lane id=":251021099_1_0" index="0" disallow="tram rail_urban rail rail_electric rail_fast ship" speed="18.05" length="5.75" shape="1984.01,2928.12 1989.75,2927.78"/>
    </edge>
    <edge id=":251021100_0" function="internal">
        <lane id=":251021100_0_0" index="0" disallow="tram rail_urban rail rail_electric rail_fast ship" speed="10.43" length="1.69" shape="2035.28,3051.08 2034.82,3051.28 2034.49,3051.40 2034.15,3051.46 2033.65,3051.50"/>
    </edge>
    <edge id=":251021100_1" function="internal">
        <lane id=":251021100_1_0" index="0" disallow="tram rail_urban rail rail_electric rail_fast ship" speed="13.89" length="0.56" shape="2033.41,3048.31 2033.58,3048.29 2033.69,3048.27 2033.80,3048.24 2033.95,3048.17"/>
    </edge>
    <edge id=":7166186947_0" function="internal">
        <lane id=":7166186947_0_0" index="0" disallow="tram rail_urban rail rail_electric rail_fast ship" speed="13.89" length="0.12" shape="2034.74,2851.93 2034.72,2852.00"/>
        <lane id=":7166186947_0_1" index="1" disallow="tram rail_urban rail rail_electric rail_fast ship" speed="13.89" length="0.12" shape="2031.64,2851.13 2031.60,2851.30"/>
    </edge>
    <edge id=":7166186947_2" function="internal">
        <lane id=":7166186947_2_0" index="0" disallow="tram rail_urban rail rail_electric rail_fast ship" speed="13.89" length="0.35" shape="2025.35,2849.91 2025.44,2849.52"/>
        <lane id=":7166186947_2_1" index="1" disallow="tram rail_urban rail rail_electric rail_fast ship" speed="13.89" length="0.35" shape="2028.47,2850.61 2028.54,2850.32"/>
    </edge>
    <edge id=":7166186951_0" function="internal">
        <lane id=":7166186951_0_0" index="0" allow="pedestrian bicycle" speed="2.78" length="6.57" width="2.00" shape="2054.73,2919.03 2053.74,2920.70 2053.08,2921.86 2052.47,2923.05 2051.61,2924.81"/>
    </edge>
    <edge id=":7166186951_1" function="internal">
        <lane id=":7166186951_1_0" index="0" disallow="tram rail_urban rail rail_electric rail_fast ship" speed="13.89" length="7.38" shape="2049.25,2919.24 2055.32,2923.45"/>
    </edge>
    <edge id=":7166186951_2" function="internal">
        <lane id=":7166186951_2_0" index="0" allow="pedestrian bicycle" speed="2.78" length="6.75" width="2.00" shape="2049.81,2923.93 2050.69,2922.13 2051.32,2920.91 2051.99,2919.72 2053.02,2918.00"/>
    </edge>
    <edge id=":7166186963_0" function="internal">
        <lane id=":7166186963_0_0" index="0" disallow="tram rail_urban rail rail_electric rail_fast ship" speed="11.66" length="6.59" shape="1992.86,2903.99 1994.62,2904.82 1995.91,2905.24 1997.26,2905.34 1999.20,2905.23"/>
    </edge>
    <edge id=":7166186966_0" function="internal">
        <lane id=":7166186966_0_0" index="0" disallow="tram rail_urban rail rail_electric rail_fast ship" speed="13.89" length="10.38" shape="2029.75,2881.78 2029.45,2884.83 2029.58,2886.96 2030.13,2889.04 2031.10,2891.91"/>
    </edge>
    <edge id=":7166186966_1" function="internal">
        <lane id=":7166186966_1_0" index="0" disallow="tram rail_urban rail rail_electric rail_fast ship" speed="18.05" length="14.94" shape="2026.58,2881.35 2026.16,2886.10 2026.19,2889.71 2026.35,2892.88 2026.36,2896.27"/>
    </edge>
    <edge id=":7166186966_2" function="internal">
        <lane id=":7166186966_2_0" index="0" disallow="tram rail_urban rail rail_electric rail_fast ship" speed="13.89" length="18.90" shape="2015.93,2898.29 2017.86,2895.24 2018.90,2891.42 2019.53,2886.59 2020.24,2880.51"/>
        <lane id=":7166186966_2_1" index="1" disallow="tram rail_urban rail rail_electric rail_fast ship" speed="13.89" length="18.90" shape="2015.93,2898.29 2018.35,2895.35 2020.47,2891.75 2022.19,2887.08 2023.41,2880.93"/>
    </edge>
    <edge id=":7166186966_4" function="internal">
        <lane id=":7166186966_4_0" index="0" disallow="tram rail_urban rail rail_electric rail_fast ship" speed="18.05" length="15.19" shape="2023.16,2896.12 2023.41,2880.93"/>
    </edge>
    <edge id=":7166186967_0" function="internal">
        <lane id=":7166186967_0_0" index="0" disallow="tram rail_urban rail rail_electric rail_fast ship" speed="13.89" length="12.31" shape="2083.13,2939.21 2079.96,2938.23 2077.20,2937.63 2074.41,2937.15 2071.14,2936.50"/>
    </edge>
    <edge id=":7166186967_1" function="internal">
        <lane id=":7166186967_1_0" index="0" disallow="tram rail_urban rail rail_electric rail_fast ship" speed="13.89" length="13.63" shape="2071.84,2933.38 2075.11,2933.49 2078.02,2932.84 2081.20,2932.42 2085.29,2933.19"/>
    </edge>
    <edge id=":7166186974_0" function="internal">
        <lane id=":7166186974_0_0" index="0" disallow="tram rail_urban rail rail_electric rail_fast ship" speed="13.89" length="4.98" shape="2015.33,2963.41 2015.17,2961.95 2015.13,2960.94 2015.15,2959.92 2015.18,2958.45"/>
    </edge>
    <edge id=":7166186974_1" function="internal">
        <lane id=":7166186974_1_0" index="0" allow="pedestrian bicycle" speed="2.78" length="7.06" width="2.00" shape="2018.73,2963.73 2011.74,2962.75"/>
    </edge>
    <edge id=":7166186974_2" function="internal">
        <lane id=":7166186974_2_0" index="0" allow="pedestrian bicycle" speed="2.78" length="7.16" width="2.00" shape="2011.97,2960.76 2019.06,2961.76"/>
    </edge>
    <edge id=":7166186975_0" function="internal">
        <lane id=":7166186975_0_0" index="0" disallow="tram rail_urban rail rail_electric rail_fast ship" speed="13.89" length="10.85" shape="2015.35,2974.45 2015.42,2971.34 2015.58,2969.01 2015.63,2966.69 2015.36,2963.61"/>
    </edge>
    <edge id=":7166186975_1" function="internal">
        <lane id=":7166186975_1_0" index="0" disallow="tram rail_urban rail rail_electric rail_fast ship" speed="11.90" length="5.08" shape="2019.95,2969.61 2019.27,2970.95 2018.83,2971.91 2018.60,2972.92 2018.55,2974.41"/>
    </edge>
    <edge id=":7166186976_0" function="internal">
        <lane id=":7166186976_0_0" index="0" allow="pedestrian bicycle" speed="2.78" length="6.98" width="2.00" shape="2025.92,2965.21 2019.08,2963.79"/>
    </edge>
    <edge id=":7166186976_1" function="internal">
        <lane id=":7166186976_1_0" index="0" disallow="tram rail_urban rail rail_electric rail_fast ship" speed="13.89" length="7.73" shape="2024.22,2959.97 2023.42,2962.12 2022.84,2963.58 2022.18,2965.01 2021.18,2967.07"/>
    </edge>
    <edge id=":7166186976_2" function="internal">
        <lane id=":7166186976_2_0" index="0" allow="pedestrian bicycle" speed="2.78" length="6.94" width="2.00" shape="2019.41,2961.82 2026.21,2963.22"/>
    </edge>
    <edge id=":7166186977_0" function="internal">
        <lane id=":7166186977_0_0" index="0" allow="pedestrian bicycle" speed="2.78" length="6.85" width="2.00" shape="2049.88,2941.57 2049.41,2934.74"/>
    </edge>
    <edge id=":7166186977_1" function="internal">
        <lane id=":7166186977_1_0" index="0" disallow="tram rail_urban rail rail_electric rail_fast ship" speed="13.89" length="7.57" shape="2054.24,2937.40 2052.03,2937.81 2050.52,2938.12 2049.03,2938.51 2046.87,2939.13"/>
    </edge>
    <edge id=":7166186977_2" function="internal">
        <lane id=":7166186977_2_0" index="0" allow="pedestrian bicycle" speed="2.78" length="6.85" width="2.00" shape="2051.41,2934.64 2051.88,2941.48"/>
    </edge>
    <edge id=":7166186978_0" function="internal">
        <lane id=":7166186978_0_0" index="0" disallow="tram rail_urban rail rail_electric rail_fast ship" speed="13.89" length="8.02" shape="2068.35,2935.88 2066.03,2935.48 2064.41,2935.50 2062.78,2935.81 2060.44,2936.29"/>
    </edge>
    <edge id=":7166186978_1" function="internal">
        <lane id=":7166186978_1_0" index="0" disallow="tram rail_urban rail rail_electric rail_fast ship" speed="13.09" length="6.37" shape="2063.73,2929.47 2065.15,2930.72 2066.14,2931.60 2067.27,2932.23 2069.04,2932.75"/>
    </edge>
    <edge id=":7166186978_2" function="internal">
        <lane id=":7166186978_2_0" index="0" disallow="tram rail_urban rail rail_electric rail_fast ship" speed="13.89" length="8.59" shape="2060.51,2932.57 2063.02,2932.85 2064.78,2932.65 2066.54,2932.46 2069.04,2932.75"/>
    </edge>
    <edge id=":7166186979_0" function="internal">
        <lane id=":7166186979_0_0" index="0" allow="pedestrian bicycle" speed="2.78" length="7.08" width="2.00" shape="2049.38,2934.09 2049.17,2927.01"/>
    </edge>
    <edge id=":7166186979_1" function="internal">
        <lane id=":7166186979_1_0" index="0" allow="pedestrian bicycle" speed="2.78" length="7.01" width="2.00" shape="2051.17,2926.99 2051.38,2933.99"/>
    </edge>
    <edge id=":7166186979_2" function="internal">
        <lane id=":7166186979_2_0" index="0" disallow="tram rail_urban rail rail_electric rail_fast ship" speed="13.89" length="7.70" shape="2046.51,2929.94 2048.78,2930.21 2050.33,2930.43 2051.87,2930.72 2054.10,2931.20"/>
    </edge>
    <edge id=":7166186980_0" function="internal">
        <lane id=":7166186980_0_0" index="0" allow="pedestrian bicycle" speed="2.78" length="6.97" width="2.00" shape="2031.35,2910.83 2029.30,2911.07 2027.89,2911.18 2026.47,2911.21 2024.40,2911.19"/>
    </edge>
    <edge id=":7166186980_1" function="internal">
        <lane id=":7166186980_1_0" index="0" disallow="tram rail_urban rail rail_electric rail_fast ship" speed="22.22" length="7.53" shape="2027.21,2906.42 2028.72,2913.80"/>
    </edge>
    <edge id=":7166186980_2" function="internal">
        <lane id=":7166186980_2_0" index="0" allow="pedestrian bicycle" speed="2.78" length="6.61" width="2.00" shape="2024.52,2909.19 2026.48,2909.21 2027.82,2909.18 2029.16,2909.07 2031.11,2908.84"/>
    </edge>
    <edge id=":7166186981_0" function="internal">
        <lane id=":7166186981_0_0" index="0" disallow="tram rail_urban rail rail_electric rail_fast ship" speed="22.22" length="3.50" shape="2026.21,2899.41 2026.17,2900.45 2026.19,2901.16 2026.29,2901.87 2026.49,2902.89"/>
    </edge>
    <edge id=":7166186981_1" function="internal">
        <lane id=":7166186981_1_0" index="0" disallow="tram rail_urban rail rail_electric rail_fast ship" speed="22.22" length="4.48" shape="2022.46,2903.69 2022.77,2902.40 2022.91,2901.50 2022.96,2900.59 2023.01,2899.26"/>
    </edge>
    <edge id=":7166186981_2" function="internal">
        <lane id=":7166186981_2_0" index="0" disallow="tram rail_urban rail rail_electric rail_fast ship" speed="5.14" length="3.71" shape="2022.46,2903.69 2023.60,2900.26 2023.67,2900.18"/>
    </edge>
    <edge id=":7166186981_3" function="internal">
        <lane id=":7166186981_3_0" index="0" disallow="tram rail_urban rail rail_electric rail_fast ship" speed="5.14" length="6.00" shape="2023.67,2900.18 2024.65,2898.99 2025.62,2899.86 2026.49,2902.89"/>
    </edge>
    <edge id=":7166186982_0" function="internal">
        <lane id=":7166186982_0_0" index="0" allow="pedestrian bicycle" speed="2.78" length="7.10" width="2.00" shape="2024.30,2911.19 2022.20,2911.16 2020.75,2911.10 2019.32,2910.95 2017.23,2910.67"/>
    </edge>
    <edge id=":7166186982_1" function="internal">
        <lane id=":7166186982_1_0" index="0" allow="pedestrian bicycle" speed="2.78" length="6.93" width="2.00" shape="2017.51,2908.69 2019.55,2908.96 2020.95,2909.10 2022.36,2909.16 2024.42,2909.19"/>
    </edge>
    <edge id=":7166186982_2" function="internal">
        <lane id=":7166186982_2_0" index="0" disallow="tram rail_urban rail rail_electric rail_fast ship" speed="22.22" length="7.72" shape="2019.69,2913.76 2021.76,2906.32"/>
    </edge>
    <edge id=":7166186983_0" function="internal">
        <lane id=":7166186983_0_0" index="0" allow="pedestrian bicycle" speed="2.78" length="6.73" width="2.00" shape="1999.63,2925.13 1997.51,2931.52"/>
    </edge>
    <edge id=":7166186983_1" function="internal">
        <lane id=":7166186983_1_0" index="0" disallow="tram rail_urban rail rail_electric rail_fast ship" speed="22.22" length="8.28" shape="1993.56,2927.62 2001.84,2927.61"/>
    </edge>
    <edge id=":7166186983_2" function="internal">
        <lane id=":7166186983_2_0" index="0" allow="pedestrian bicycle" speed="2.78" length="6.74" width="2.00" shape="1995.61,2930.89 1997.73,2924.50"/>
    </edge>
    <edge id=":7166186984_0" function="internal">
        <lane id=":7166186984_0_0" index="0" disallow="tram rail_urban rail rail_electric rail_fast ship" speed="22.22" length="7.60" shape="1999.31,2936.05 1992.14,2933.52"/>
    </edge>
    <edge id=":7166186984_1" function="internal">
        <lane id=":7166186984_1_0" index="0" allow="pedestrian bicycle" speed="2.78" length="5.70" width="2.00" shape="1997.37,2931.94 1996.85,2933.55 1996.56,2934.68 1996.41,2935.83 1996.30,2937.51"/>
    </edge>
    <edge id=":7166186984_2" function="internal">
        <lane id=":7166186984_2_0" index="0" allow="pedestrian bicycle" speed="5.38" length="6.13" shape="1997.37,2931.94 1996.68,2933.13 1995.59,2933.78 1994.07,2933.91 1992.14,2933.52"/>
    </edge>
    <edge id=":7166186984_3" function="internal">
        <lane id=":7166186984_3_0" index="0" allow="pedestrian bicycle" speed="2.78" length="6.23" width="2.00" shape="1994.30,2937.40 1994.42,2935.56 1994.59,2934.30 1994.90,2933.08 1995.47,2931.32"/>
    </edge>
    <edge id=":7166206288_0" function="internal">
        <lane id=":7166206288_0_0" index="0" disallow="tram rail_urban rail rail_electric rail_fast ship" speed="7.92" length="6.59" shape="2029.45,2951.60 2028.26,2952.24 2027.20,2953.29 2026.26,2954.74 2025.45,2956.59"/>
    </edge>
    <edge id=":7166206288_1" function="internal">
        <lane id=":7166206288_1_0" index="0" disallow="tram rail_urban rail rail_electric rail_fast ship" speed="12.70" length="7.10" shape="2029.45,2951.60 2027.48,2952.35 2026.07,2952.83 2024.65,2952.97 2022.59,2952.74"/>
    </edge>
    <edge id=":7166206292_0" function="internal">
        <lane id=":7166206292_0_0" index="0" disallow="tram rail_urban rail rail_electric rail_fast ship" speed="8.03" length="6.52" shape="2043.36,2940.15 2041.46,2940.82 2039.95,2941.64 2038.83,2942.59 2038.10,2943.69"/>
    </edge>
    <edge id=":7166206292_1" function="internal">
        <lane id=":7166206292_1_0" index="0" disallow="tram rail_urban rail rail_electric rail_fast ship" speed="12.14" length="7.02" shape="2039.85,2937.05 2039.92,2939.09 2039.64,2940.48 2039.03,2941.82 2038.10,2943.69"/>
    </edge>
    <edge id=":7166206295_0" function="internal">
        <lane id=":7166206295_0_0" index="0" disallow="tram rail_urban rail rail_electric rail_fast ship" speed="8.11" length="6.60" shape="2036.46,2926.88 2037.37,2927.82 2038.65,2928.57 2040.31,2929.12 2042.33,2929.47"/>
    </edge>
    <edge id=":7166206295_1" function="internal">
        <lane id=":7166206295_1_0" index="0" disallow="tram rail_urban rail rail_electric rail_fast ship" speed="12.87" length="7.08" shape="2036.46,2926.88 2037.71,2928.57 2038.57,2929.78 2039.11,2931.11 2039.45,2933.14"/>
    </edge>
    <edge id=":7166206298_0" function="internal">
        <lane id=":7166206298_0_0" index="0" disallow="tram rail_urban rail rail_electric rail_fast ship" speed="8.23" length="6.52" shape="2029.52,2917.64 2030.05,2919.62 2030.72,2921.21 2031.55,2922.42 2032.53,2923.24"/>
    </edge>
    <edge id=":7166206298_1" function="internal">
        <lane id=":7166206298_1_0" index="0" disallow="tram rail_urban rail rail_electric rail_fast ship" speed="12.20" length="6.99" shape="2026.17,2920.72 2028.20,2920.89 2029.53,2921.34 2030.78,2922.11 2032.53,2923.24"/>
    </edge>
    <edge id=":7166206301_0" function="internal">
        <lane id=":7166206301_0_0" index="0" disallow="tram rail_urban rail rail_electric rail_fast ship" speed="8.91" length="6.42" shape="2015.49,2922.95 2016.95,2921.85 2017.68,2920.78 2018.08,2919.46 2018.56,2917.61"/>
    </edge>
    <edge id=":7166206301_1" function="internal">
        <lane id=":7166206301_1_0" index="0" disallow="tram rail_urban rail rail_electric rail_fast ship" speed="11.22" length="6.64" shape="2015.49,2922.95 2017.15,2921.87 2018.34,2921.16 2019.63,2920.78 2021.56,2920.68"/>
    </edge>
    <edge id=":7166206303_0" function="internal">
        <lane id=":7166206303_0_0" index="0" disallow="tram rail_urban rail rail_electric rail_fast ship" speed="7.86" length="6.58" shape="2005.72,2927.77 2007.73,2927.72 2009.42,2927.40 2010.78,2926.81 2011.83,2925.94"/>
    </edge>
    <edge id=":7166206303_1" function="internal">
        <lane id=":7166206303_1_0" index="0" disallow="tram rail_urban rail rail_electric rail_fast ship" speed="12.53" length="7.09" shape="2008.26,2931.90 2008.79,2929.90 2009.45,2928.62 2010.40,2927.49 2011.83,2925.94"/>
    </edge>
    <edge id=":7166206306_0" function="internal">
        <lane id=":7166206306_0_0" index="0" disallow="tram rail_urban rail rail_electric rail_fast ship" speed="7.77" length="6.75" shape="2008.47,2942.03 2007.88,2940.75 2006.87,2939.61 2005.43,2938.59 2003.57,2937.72"/>
    </edge>
    <edge id=":7166206306_1" function="internal">
        <lane id=":7166206306_1_0" index="0" disallow="tram rail_urban rail rail_electric rail_fast ship" speed="13.84" length="7.31" shape="2008.47,2942.03 2007.83,2939.95 2007.42,2938.48 2007.33,2937.01 2007.64,2934.90"/>
    </edge>
    <edge id=":7166206310_0" function="internal">
        <lane id=":7166206310_0_0" index="0" disallow="tram rail_urban rail rail_electric rail_fast ship" speed="13.57" length="7.27" shape="2019.29,2952.16 2017.23,2951.67 2015.90,2951.03 2014.71,2950.11 2013.03,2948.74"/>
    </edge>
    <edge id=":7166206310_1" function="internal">
        <lane id=":7166206310_1_0" index="0" disallow="tram rail_urban rail rail_electric rail_fast ship" speed="7.79" length="6.72" shape="2015.20,2954.87 2015.07,2952.82 2014.67,2951.12 2013.99,2949.76 2013.03,2948.74"/>
    </edge>
    <edge id=":7166206313_0" function="internal">
        <lane id=":7166206313_0_0" index="0" allow="pedestrian bicycle" speed="8.34" length="7.33" width="2.00" shape="2020.28,3003.65 2019.35,3001.68 2018.73,3000.32 2018.07,2998.99 2016.97,2997.11"/>
    </edge>
    <edge id=":7166206313_1" function="internal">
        <lane id=":7166206313_1_0" index="0" disallow="tram rail_urban rail rail_electric rail_fast ship" speed="13.89" length="8.43" shape="2020.28,3003.65 2019.21,3001.39 2018.58,2999.79 2018.11,2998.14 2017.48,2995.72"/>
    </edge>
    <edge id=":7166206313_2" function="internal">
        <lane id=":7166206313_2_0" index="0" allow="pedestrian bicycle" speed="8.34" length="3.70" shape="2023.00,2998.62 2022.87,2999.71 2022.74,3000.49 2022.77,3001.23 2023.15,3002.23"/>
    </edge>
    <edge id=":7166206313_3" function="internal">
        <lane id=":7166206313_3_0" index="0" allow="pedestrian bicycle" speed="2.78" length="10.81" width="2.00" shape="2023.00,2998.62 2022.46,3001.39 2021.28,3002.06 2019.45,3000.64 2016.97,2997.11"/>
    </edge>
    <edge id=":7166206313_4" function="internal">
        <lane id=":7166206313_4_0" index="0" allow="pedestrian bicycle" speed="6.35" length="17.51" shape="2023.00,2998.62 2022.34,3004.00 2021.20,3005.31 2019.58,3002.55 2017.48,2995.72"/>
    </edge>
    <edge id=":7166206313_5" function="internal">
        <lane id=":7166206313_5_0" index="0" allow="pedestrian bicycle" speed="2.73" length="1.38" width="2.00" shape="2022.12,2999.31 2021.01,2998.50"/>
    </edge>
    <edge id=":7166206313_6" function="internal">
        <lane id=":7166206313_6_0" index="0" disallow="tram rail_urban rail rail_electric rail_fast ship" speed="13.89" length="3.09" shape="2022.12,2999.31 2022.41,3000.19 2022.57,3000.80 2022.77,3001.39 2023.15,3002.23"/>
    </edge>
    <edge id=":7166206313_7" function="internal">
        <lane id=":7166206313_7_0" index="0" allow="pedestrian bicycle" speed="3.30" length="3.82" shape="2020.14,2998.46 2017.48,2995.72"/>
    </edge>
    <edge id=":7166206313_8" function="internal">
        <lane id=":7166206313_8_0" index="0" allow="pedestrian bicycle" speed="2.58" length="1.61" width="2.00" shape="2020.14,2998.46 2020.49,2998.95 2020.75,2999.12 2020.92,2998.97 2021.01,2998.50"/>
    </edge>
    <edge id=":7166206313_9" function="internal">
        <lane id=":7166206313_9_0" index="0" allow="pedestrian bicycle" speed="8.34" length="4.84" shape="2020.14,2998.46 2020.99,2999.61 2021.71,3000.31 2022.40,3001.02 2023.15,3002.23"/>
    </edge>
    <edge id=":7166206315_0" function="internal">
        <lane id=":7166206315_0_0" index="0" allow="bicycle" speed="5.20" length="6.58" shape="1992.18,2922.63 1990.72,2922.36 1989.78,2921.46 1989.37,2919.91 1989.48,2917.72"/>
    </edge>
    <edge id=":7166206315_1" function="internal">
        <lane id=":7166206315_1_0" index="0" disallow="pedestrian tram rail_urban rail rail_electric rail_fast ship" speed="13.89" length="6.96" shape="1987.22,2924.27 1988.03,2922.37 1988.63,2921.07 1989.09,2919.74 1989.48,2917.72"/>
    </edge>
    <edge id=":7166206315_2" function="internal">
        <lane id=":7166206315_2_0" index="0" allow="bicycle" speed="6.60" length="6.50" width="2.00" shape="1987.22,2924.27 1988.04,2922.72 1989.13,2921.60 1990.49,2920.90 1992.12,2920.63"/>
    </edge>
    <edge id=":8069940667_0" function="internal">
        <lane id=":8069940667_0_0" index="0" allow="pedestrian bicycle" speed="9.73" length="19.60" shape="1983.10,2936.04 1978.78,2934.83 1973.64,2933.34 1968.46,2932.09 1964.06,2931.60"/>
    </edge>
    <edge id=":8069940667_1" function="internal">
        <lane id=":8069940667_1_0" index="0" disallow="tram rail_urban rail rail_electric rail_fast ship" speed="16.67" length="18.50" shape="1982.56,2931.28 1964.06,2931.60"/>
    </edge>
    <edge id=":8069940667_2" function="internal">
        <lane id=":8069940667_2_0" index="0" disallow="tram rail_urban rail rail_electric rail_fast ship" speed="16.67" length="18.51" shape="1964.00,2928.40 1982.50,2928.08"/>
    </edge>
    <edge id=":8069940675_0" function="internal">
        <lane id=":8069940675_0_0" index="0" allow="pedestrian bicycle" speed="2.78" length="4.00" width="2.00" shape="2011.10,2962.68 2009.93,2962.69 2009.07,2963.04 2008.53,2963.71 2008.31,2964.72"/>
    </edge>
    <edge id=":8069940675_1" function="internal">
        <lane id=":8069940675_1_0" index="0" allow="pedestrian bicycle" speed="2.78" length="6.92" width="2.00" shape="2011.10,2962.68 2009.10,2962.38 2007.75,2961.94 2006.57,2961.13 2005.05,2959.77"/>
    </edge>
    <edge id=":8069940675_2" function="internal">
        <lane id=":8069940675_2_0" index="0" allow="pedestrian bicycle" speed="2.78" length="5.93" width="2.00" shape="2006.41,2958.30 2007.72,2959.46 2008.74,2960.12 2009.91,2960.48 2011.64,2960.72"/>
    </edge>