<?xml version="1.0" encoding="UTF-8"?>
<!-- generated on 2022-07-22 10:46:04.587999 by randomTrips.py UNKNOWN
  options: -n 5GoIng.net.xml -p 20 <doubleminus>vehicle-class passenger -e 3600 -o 5GoIng.passenger.trips.xml
-->
<routes xmlns:xsi="http://www.w3.org/2001/XMLSchema-instance" xsi:noNamespaceSchemaLocation="http://sumo.dlr.de/xsd/routes_file.xsd">
    <vType id="passenger" vClass="passenger"/>
    <trip id="0" depart="0.00" from="767516519#1" to="-1042026729" type="passenger"/>
    <trip id="1" depart="20.00" from="146973220#0" to="146973220#0" type="passenger"/>
    <trip id="2" depart="40.00" from="767516522#0" to="767516521#0" type="passenger"/>
    <trip id="3" depart="60.00" from="767516523#7" to="-146973220#1" type="passenger"/>
    <trip id="4" depart="80.00" from="767516510#2" to="-1042026729" type="passenger"/>
    <trip id="5" depart="100.00" from="1016166670#0" to="767516516#0" type="passenger"/>
    <trip id="6" depart="120.00" from="-1016166670#1" to="1016166670#1" type="passenger"/>
    <trip id="7" depart="140.00" from="767516519#1" to="767516517#0" type="passenger"/>
    <trip id="8" depart="160.00" from="1016166670#0" to="767516518#1" type="passenger"/>
    <trip id="9" depart="180.00" from="767516523#2" to="-1016166670#0" type="passenger"/>
    <trip id="10" depart="200.00" from="767516523#2" to="767516521#1" type="passenger"/>
    <trip id="11" depart="220.00" from="767516509#0" to="-865774623#0" type="passenger"/>
    <trip id="12" depart="240.00" from="865774624#1" to="767516509#1" type="passenger"/>
    <trip id="13" depart="260.00" from="-164051425#0" to="-767516508#0" type="passenger"/>
    <trip id="14" depart="280.00" from="767516523#4" to="767516519#0" type="passenger"/>
    <trip id="15" depart="300.00" from="767516523#2" to="767516522#1" type="passenger"/>
    <trip id="16" depart="320.00" from="767516516#1" to="865774624#2" type="passenger"/>
    <trip id="17" depart="340.00" from="767516509#2" to="767516517#1" type="passenger"/>
    <trip id="18" depart="360.00" from="767516523#3" to="767516519#1" type="passenger"/>
    <trip id="19" depart="380.00" from="767516523#5" to="767516518#0" type="passenger"/>
    <trip id="20" depart="400.00" from="767516521#0" to="-146973201#3" type="passenger"/>
    <trip id="21" depart="420.00" from="1016166670#0" to="767516508#0" type="passenger"/>
    <trip id="22" depart="440.00" from="-146973220#1" to="146973220#0" type="passenger"/>
    <trip id="23" depart="460.00" from="-164051425#0" to="767516508#0" type="passenger"/>
    <trip id="24" depart="480.00" from="767516519#0" to="767516510#0" type="passenger"/>
    <trip id="25" depart="500.00" from="767516509#2" to="1042026729" type="passenger"/>
    <trip id="26" depart="520.00" from="146973201#3" to="865774624#0" type="passenger"/>
    <trip id="27" depart="540.00" from="767516519#1" to="767516519#0" type="passenger"/>
    <trip id="28" depart="560.00" from="-767516512" to="767516522#1" type="passenger"/>
    <trip id="29" depart="580.00" from="-767516511" to="767516510#0" type="passenger"/>
    <trip id="30" depart="600.00" from="865774625" to="767516520#0" type="passenger"/>
    <trip id="31" depart="620.00" from="767516517#0" to="767516521#0" type="passenger"/>
    <trip id="32" depart="640.00" from="767516523#4" to="767516523#1" type="passenger"/>
    <trip id="33" depart="660.00" from="1016166670#0" to="-1042026729" type="passenger"/>
    <trip id="34" depart="680.00" from="767516508#0" to="164051425#0" type="passenger"/>
    <trip id="35" depart="700.00" from="-865774623#1" to="865774624#0" type="passenger"/>
    <trip id="36" depart="720.00" from="767516523#6" to="767516509#0" type="passenger"/>
    <trip id="37" depart="740.00" from="767516520#0" to="767516510#1" type="passenger"/>
    <trip id="38" depart="760.00" from="865774623#0" to="767516515#0" type="passenger"/>
    <trip id="39" depart="780.00" from="146973201#3" to="146973220#1" type="passenger"/>
    <trip id="40" depart="800.00" from="767516517#0" to="164051425#0" type="passenger"/>
    <trip id="41" depart="820.00" from="767516518#0" to="865774623#0" type="passenger"/>
    <trip id="42" depart="840.00" from="767516510#0" to="146973220#0" type="passenger"/>
    <trip id="43" depart="860.00" from="865774625" to="767516516#1" type="passenger"/>
    <trip id="44" depart="880.00" from="-164051425#0" to="-146973201#3" type="passenger"/>
    <trip id="45" depart="900.00" from="-767516508#0" to="767516519#1" type="passenger"/>
    <trip id="46" depart="920.00" from="767516523#1" to="767516511" type="passenger"/>
    <trip id="47" depart="940.00" from="-146973220#0" to="767516510#0" type="passenger"/>
    <trip id="48" depart="960.00" from="865774625" to="767516517#0" type="passenger"/>
    <trip id="49" depart="980.00" from="865774624#2" to="767516523#6" type="passenger"/>
    <trip id="50" depart="1000.00" from="-1016166670#0" to="767516522#0" type="passenger"/>
    <trip id="51" depart="1020.00" from="767516520#1" to="767516517#0" type="passenger"/>
    <trip id="52" depart="1040.00" from="146973201#3" to="767516520#0" type="passenger"/>
    <trip id="53" depart="1060.00" from="-767516508#0" to="767516511" type="passenger"/>
    <trip id="54" depart="1080.00" from="767516511" to="865774624#1" type="passenger"/>
    <trip id="55" depart="1100.00" from="767516523#6" to="164051425#0" type="passenger"/>
    <trip id="56" depart="1120.00" from="767516515#1" to="1016166670#0" type="passenger"/>
    <trip id="57" depart="1140.00" from="865774623#0" to="767516523#6" type="passenger"/>
    <trip id="58" depart="1160.00" from="146973220#1" to="767516520#0" type="passenger"/>
    <trip id="59" depart="1180.00" from="767516518#1" to="-865774623#0" type="passenger"/>
    <trip id="60" depart="1200.00" from="767516522#1" to="767516517#0" type="passenger"/>
    <trip id="61" depart="1220.00" from="767516523#0" to="767516517#0" type="passenger"/>
    <trip id="62" depart="1240.00" from="-1016166670#0" to="767516509#0" type="passenger"/>
    <trip id="63" depart="1260.00" from="-1016166670#1" to="865774624#0" type="passenger"/>
    <trip id="64" depart="1280.00" from="767516523#6" to="767516523#4" type="passenger"/>
    <trip id="65" depart="1300.00" from="146973220#1" to="-146973220#0" type="passenger"/>
    <trip id="66" depart="1320.00" from="767516523#6" to="865774624#1" type="passenger"/>
    <trip id="67" depart="1340.00" from="-146973220#1" to="767516515#1" type="passenger"/>
    <trip id="68" depart="1360.00" from="-146973220#0" to="767516523#0" type="passenger"/>
    <trip id="69" depart="1380.00" from="767516523#0" to="-767516512" type="passenger"/>
    <trip id="70" depart="1400.00" from="767516515#0" to="767516517#1" type="passenger"/>
    <trip id="71" depart="1420.00" from="146973201#3" to="767516523#6" type="passenger"/>
    <trip id="72" depart="1440.00" from="767516510#2" to="1042026729" type="passenger"/>
    <trip id="73" depart="1460.00" from="767516516#1" to="767516522#1" type="passenger"/>
    <trip id="74" depart="1480.00" from="-865774623#1" to="767516509#0" type="passenger"/>
    <trip id="75" depart="1500.00" from="865774625" to="767516520#0" type="passenger"/>
    <trip id="76" depart="1520.00" from="767516511" to="767516516#1" type="passenger"/>
    <trip id="77" depart="1540.00" from="-767516508#0" to="146973220#0" type="passenger"/>
    <trip id="78" depart="1560.00" from="767516509#0" to="767516518#1" type="passenger"/>
    <trip id="79" depart="1580.00" from="1016166670#0" to="146973220#0" type="passenger"/>
    <trip id="80" depart="1600.00" from="-146973220#0" to="767516519#1" type="passenger"/>
    <trip id="81" depart="1620.00" from="1016166670#0" to="865774623#0" type="passenger"/>
    <trip id="82" depart="1640.00" from="767516523#5" to="-146973220#0" type="passenger"/>
    <trip id="83" depart="1660.00" from="1042026729" to="767516520#1" type="passenger"/>
    <trip id="84" depart="1680.00" from="-865774623#1" to="-767516512" type="passenger"/>
    <trip id="85" depart="1700.00" from="865774624#0" to="767516518#0" type="passenger"/>
    <trip id="86" depart="1720.00" from="767516512" to="767516523#2" type="passenger"/>
    <trip id="87" depart="1740.00" from="767516523#2" to="1016166670#1" type="passenger"/>
    <trip id="88" depart="1760.00" from="-164051425#0" to="767516511" type="passenger"/>
    <trip id="89" depart="1780.00" from="767516510#2" to="767516515#0" type="passenger"/>
    <trip id="90" depart="1800.00" from="767516522#0" to="767516521#0" type="passenger"/>
    <trip id="91" depart="1820.00" from="865774625" to="-767516508#0" type="passenger"/>
    <trip id="92" depart="1840.00" from="767516510#1" to="767516509#1" type="passenger"/>
    <trip id="93" depart="1860.00" from="767516523#5" to="146973220#1" type="passenger"/>
    <trip id="94" depart="1880.00" from="-865774623#0" to="767516512" type="passenger"/>
    <trip id="95" depart="1900.00" from="767516510#2" to="767516508#0" type="passenger"/>
    <trip id="96" depart="1920.00" from="1042026729" to="865774623#1" type="passenger"/>
    <trip id="97" depart="1940.00" from="767516511" to="767516523#6" type="passenger"/>
    <trip id="98" depart="1960.00" from="767516517#0" to="-146973201#3" type="passenger"/>
    <trip id="99" depart="1980.00" from="865774625" to="767516523#4" type="passenger"/>
    <trip id="100" depart="2000.00" from="865774624#2" to="865774623#1" type="passenger"/>
    <trip id="101" depart="2020.00" from="767516523#4" to="1016166670#0" type="passenger"/>
    <trip id="102" depart="2040.00" from="767516515#0" to="1042026729" type="passenger"/>
    <trip id="103" depart="2060.00" from="767516510#1" to="-146973220#0" type="passenger"/>
    <trip id="104" depart="2080.00" from="767516509#2" to="865774625" type="passenger"/>
    <trip id="105" depart="2100.00" from="146973201#3" to="767516523#2" type="passenger"/>
    <trip id="106" depart="2120.00" from="767516512" to="767516511" type="passenger"/>
    <trip id="107" depart="2140.00" from="865774624#1" to="865774625" type="passenger"/>
    <trip id="108" depart="2160.00" from="767516517#0" to="767516522#0" type="passenger"/>
    <trip id="109" depart="2180.00" from="-767516511" to="767516508#1" type="passenger"/>
    <trip id="110" depart="2200.00" from="865774624#2" to="767516518#0" type="passenger"/>
    <trip id="111" depart="2220.00" from="767516516#1" to="767516523#0" type="passenger"/>
    <trip id="112" depart="2240.00" from="-146973220#0" to="767516518#1" type="passenger"/>
    <trip id="113" depart="2260.00" from="767516515#1" to="767516523#5" type="passenger"/>
    <trip id="114" depart="2280.00" from="-767516511" to="865774624#1" type="passenger"/>
    <trip id="115" depart="2300.00" from="-146973220#1" to="1016166670#1" type="passenger"/>
    <trip id="116" depart="2320.00" from="767516518#0" to="767516521#0" type="passenger"/>
    <trip id="117" depart="2340.00" from="1016166670#0" to="-767516511" type="passenger"/>
    <trip id="118" depart="2360.00" from="767516523#6" to="146973220#1" type="passenger"/>
    <trip id="119" depart="2380.00" from="767516518#0" to="767516519#1" type="passenger"/>
    <trip id="120" depart="2400.00" from="767516510#2" to="767516518#1" type="passenger"/>
    <trip id="121" depart="2420.00" from="767516516#0" to="865774624#0" type="passenger"/>
    <trip id="122" depart="2440.00" from="-865774623#1" to="767516522#0" type="passenger"/>
    <trip id="123" depart="2460.00" from="1042026729" to="767516510#1" type="passenger"/>
    <trip id="124" depart="2480.00" from="767516520#0" to="767516508#1" type="passenger"/>
    <trip id="125" depart="2500.00" from="767516508#0" to="767516523#0" type="passenger"/>
    <trip id="126" depart="2520.00" from="-146973220#0" to="767516515#0" type="passenger"/>
    <trip id="127" depart="2540.00" from="865774625" to="865774625" type="passenger"/>
    <trip id="128" depart="2560.00" from="-146973220#1" to="1042026729" type="passenger"/>
    <trip id="129" depart="2580.00" from="146973201#3" to="865774624#0" type="passenger"/>
    <trip id="130" depart="2600.00" from="767516523#6" to="767516523#7" type="passenger"/>
    <trip id="131" depart="2620.00" from="767516509#2" to="-865774623#0" type="passenger"/>
    <trip id="132" depart="2640.00" from="767516523#3" to="767516521#1" type="passenger"/>
    <trip id="133" depart="2660.00" from="767516518#1" to="865774625" type="passenger"/>
    <trip id="134" depart="2680.00" from="767516519#1" to="-1016166670#0" type="passenger"/>
    <trip id="135" depart="2700.00" from="767516523#2" to="767516508#1" type="passenger"/>
    <trip id="136" depart="2720.00" from="767516520#0" to="865774624#0" type="passenger"/>
    <trip id="137" depart="2740.00" from="-767516508#1" to="-767516511" type="passenger"/>
    <trip id="138" depart="2760.00" from="-164051425#0" to="767516517#1" type="passenger"/>
    <trip id="139" depart="2780.00" from="146973201#3" to="767516519#0" type="passenger"/>
    <trip id="140" depart="2800.00" from="767516521#1" to="1042026729" type="passenger"/>
    <trip id="141" depart="2820.00" from="767516519#0" to="164051425#0" type="passenger"/>
    <trip id="142" depart="2840.00" from="767516515#0" to="865774623#0" type="passenger"/>
    <trip id="143" depart="2860.00" from="767516523#4" to="-767516508#0" type="passenger"/>
    <trip id="144" depart="2880.00" from="767516510#2" to="767516508#0" type="passenger"/>
    <trip id="145" depart="2900.00" from="-1016166670#0" to="767516523#1" type="passenger"/>
    <trip id="146" depart="2920.00" from="767516519#1" to="164051425#0" type="passenger"/>
    <trip id="147" depart="2940.00" from="767516522#0" to="767516517#1" type="passenger"/>
    <trip id="148" depart="2960.00" from="767516510#2" to="-1016166670#0" type="passenger"/>
    <trip id="149" depart="2980.00" from="-146973220#1" to="767516523#7" type="passenger"/>
    <trip id="150" depart="3000.00" from="767516523#7" to="767516517#1" type="passenger"/>
    <trip id="151" depart="3020.00" from="767516523#3" to="767516518#1" type="passenger"/>
    <trip id="152" depart="3040.00" from="-767516511" to="-767516512" type="passenger"/>
    <trip id="153" depart="3060.00" from="146973220#1" to="865774623#0" type="passenger"/>
    <trip id="154" depart="3080.00" from="767516523#1" to="767516523#6" type="passenger"/>
    <trip id="155" depart="3100.00" from="767516523#7" to="1042026729" type="passenger"/>
    <trip id="156" depart="3120.00" from="1042026729" to="-767516508#0" type="passenger"/>
    <trip id="157" depart="3140.00" from="767516523#0" to="767516523#7" type="passenger"/>
    <trip id="158" depart="3160.00" from="767516510#1" to="767516519#1" type="passenger"/>
    <trip id="159" depart="3180.00" from="-767516511" to="865774624#0" type="passenger"/>
    <trip id="160" depart="3200.00" from="767516523#5" to="865774624#2" type="passenger"/>
    <trip id="161" depart="3220.00" from="767516523#2" to="767516523#7" type="passenger"/>
    <trip id="162" depart="3240.00" from="-1016166670#1" to="767516522#1" type="passenger"/>
    <trip id="163" depart="3260.00" from="767516509#0" to="865774624#0" type="passenger"/>
    <trip id="164" depart="3280.00" from="767516523#2" to="767516523#6" type="passenger"/>
    <trip id="165" depart="3300.00" from="767516523#2" to="164051425#0" type="passenger"/>
    <trip id="166" depart="3320.00" from="767516523#1" to="-767516508#0" type="passenger"/>
    <trip id="167" depart="3340.00" from="767516523#5" to="767516523#6" type="passenger"/>
    <trip id="168" depart="3360.00" from="1016166670#0" to="767516523#3" type="passenger"/>
    <trip id="169" depart="3380.00" from="767516512" to="767516508#1" type="passenger"/>
    <trip id="170" depart="3400.00" from="767516523#1" to="146973220#0" type="passenger"/>
    <trip id="171" depart="3420.00" from="-1016166670#1" to="1016166670#1" type="passenger"/>
    <trip id="172" depart="3440.00" from="767516509#0" to="767516523#6" type="passenger"/>
    <trip id="173" depart="3460.00" from="865774624#2" to="767516508#0" type="passenger"/>
    <trip id="174" depart="3480.00" from="767516519#1" to="767516510#1" type="passenger"/>
    <trip id="175" depart="3500.00" from="865774624#2" to="767516517#0" type="passenger"/>
    <trip id="176" depart="3520.00" from="865774624#0" to="-767516511" type="passenger"/>
    <trip id="177" depart="3540.00" from="865774624#2" to="1016166670#0" type="passenger"/>
    <trip id="178" depart="3560.00" from="865774624#1" to="164051425#0" type="passenger"/>
    <trip id="179" depart="3580.00" from="-164051425#0" to="767516511" type="passenger"/>
</routes>
