<?xml version="1.0" encoding="UTF-8"?>

<!-- generated on 2022-07-22 09:46:54 by Eclipse SUMO polyconvert Version 1.12.0
<configuration xmlns:xsi="http://www.w3.org/2001/XMLSchema-instance" xsi:noNamespaceSchemaLocation="http://sumo.dlr.de/xsd/polyconvertConfiguration.xsd">

    <input>
        <net-file value="5GoIng.net.xml"/>
        <osm-files value="5GoIng.osm"/>
        <type-file value="typemap.xml"/>
    </input>

    <output>
        <output-file value="5GoIng.poly.xml"/>
    </output>

    <processing>
        <poi-layer-offset value="5"/>
    </processing>

</configuration>
-->

<additional xmlns:xsi="http://www.w3.org/2001/XMLSchema-instance" xsi:noNamespaceSchemaLocation="http://sumo.dlr.de/xsd/additional_file.xsd">
    <location netOffset="-680082.24,-5400237.80" convBoundary="-188.64,0.00,3357.48,3834.17" origBoundary="11.447450,48.728591,11.495885,48.763400" projParameter="+proj=utm +zone=32 +ellps=WGS84 +datum=WGS84 +units=m +no_defs"/>

    <poly id="101321162" type="forest" color="140,196,107" fill="1" layer="-3.00" shape="656.997431,2109.704279 475.248733,2042.689847 399.787589,2013.186547 315.423813,1982.273700 297.866383,1975.688713 232.705798,1924.222643 191.383589,1891.749662 198.986579,1884.372994 274.136406,1934.814122 314.725031,1960.343595 387.675639,1990.610354 407.249051,1987.836676 489.471597,2021.930748 663.004314,2090.015515 656.997431,2109.704279"/>
    <poly id="1016166666" type="building" color="255,230,230" fill="1" layer="-1.00" shape="2161.225308,2746.991190 2248.825319,2779.140009 2231.371172,2826.437629 2143.779189,2794.289304 2161.225308,2746.991190"/>
    <poly id="1016166667" type="building" color="255,230,230" fill="1" layer="-1.00" shape="2275.764509,2992.622628 2301.978342,2918.984862 2390.979009,2950.491909 2427.910269,2846.728531 2299.247113,2801.177543 2262.731612,2903.764650 2276.564996,2908.665926 2249.937920,2983.480866 2275.764509,2992.622628"/>
    <poly id="1016166669" type="building" color="255,230,230" fill="1" layer="-1.00" shape="2110.106184,2689.839372 2120.636954,2661.509225 2212.425631,2695.440444 2201.894074,2723.781544 2110.106184,2689.839372"/>
    <poly id="1018488383" type="landuse" color="194,194,130" fill="1" layer="-3.00" shape="593.429402,2613.620576 603.244716,2562.311372 611.232250,2573.328329 620.450906,2584.040127 631.386866,2593.060553 645.918063,2599.649155 659.727421,2604.211754 689.045690,2606.727284 688.901142,2608.469446 659.491817,2606.039986 644.973765,2604.514240 629.086311,2604.613268 616.313967,2606.214812 605.781434,2608.856671 593.429402,2613.620576"/>
    <poly id="1020089613" type="building" color="255,230,230" fill="1" layer="-1.00" shape="1948.279222,2064.519967 1909.411009,2051.929667 1924.558841,2005.379515 1963.435070,2017.959036 1948.279222,2064.519967"/>
    <poly id="1020089614" type="building" color="255,230,230" fill="1" layer="-1.00" shape="1940.439336,2045.617164 1946.223863,2028.837413 1931.662480,2023.846675 1927.900819,2034.761810 1929.450908,2035.290639 1927.428081,2041.155268 1940.439336,2045.617164"/>
    <poly id="1020089614#1" type="building" color="255,230,230" fill="1" layer="-1.00" shape="1940.439336,2045.617164 1946.223863,2028.837413 1931.662480,2023.846675 1927.900819,2034.761810 1929.450908,2035.290639 1927.428081,2041.155268 1940.439336,2045.617164"/>
    <poly id="1020089615" type="building" color="255,230,230" fill="1" layer="-1.00" shape="1961.596213,2011.601681 1935.432047,1991.413271 1951.021922,1971.336211 1977.071420,1991.431950 1971.825926,1998.193155 1975.443430,2000.992257 1971.496181,2006.071079 1967.986044,2003.364482 1961.596213,2011.601681"/>
    <poly id="103179958" type="building" color="255,230,230" fill="1" layer="-1.00" shape="1423.703711,2125.718592 1475.175383,2144.010365 1490.073640,2102.313390 1491.125419,2099.376755 1501.942061,2103.221255 1511.645253,2072.204062 1483.233732,2062.515009 1472.678752,2095.752150 1438.722319,2083.702738 1423.703711,2125.718592"/>
    <poly id="1042026722" type="building" color="255,230,230" fill="1" layer="-1.00" shape="2081.412853,2518.236674 2090.007473,2495.595846 2120.192410,2506.992603 2111.605028,2529.633627 2081.412853,2518.236674"/>
    <poly id="1042026723" type="building" color="255,230,230" fill="1" layer="-1.00" shape="2119.505006,2415.989112 2142.608530,2424.563024 2141.100966,2428.608491 2148.763404,2431.450385 2150.149509,2427.745886 2165.074111,2433.294289 2145.022430,2486.927575 2129.836260,2481.281693 2131.802901,2476.016129 2124.947663,2473.467563 2123.061761,2478.513228 2098.868271,2469.525613 2105.202979,2453.253480 2135.395475,2464.650553 2143.983030,2442.009563 2113.797773,2430.612686 2119.505006,2415.989112"/>
    <poly id="1042026724" type="building" color="255,230,230" fill="1" layer="-1.00" shape="2105.202979,2453.253480 2113.797773,2430.612686 2143.983030,2442.009563 2135.395475,2464.650553 2105.202979,2453.253480"/>
    <poly id="1042026725" type="building" color="255,230,230" fill="1" layer="-1.00" shape="2053.460495,2525.961265 2030.357288,2517.387713 2031.872102,2513.342458 2024.202741,2510.489368 2022.816375,2514.205010 2007.891876,2508.656984 2027.942160,2455.023240 2043.128489,2460.668841 2041.162291,2465.923320 2048.017571,2468.471782 2049.903045,2463.437208 2074.096628,2472.424609 2067.769741,2488.685899 2037.577262,2477.289191 2028.982475,2499.941209 2059.175204,2511.326759 2053.460495,2525.961265"/>
    <poly id="1042026726" type="building" color="255,230,230" fill="1" layer="-1.00" shape="2067.769741,2488.685899 2059.175204,2511.326759 2028.982475,2499.941209 2037.577262,2477.289191 2067.769741,2488.685899"/>
    <poly id="1042026727" type="building" color="255,230,230" fill="1" layer="-1.00" shape="2091.181327,2424.480314 2082.586619,2447.121140 2052.400923,2435.735711 2060.988531,2413.083487 2091.181327,2424.480314"/>
    <poly id="1042026728" type="building" color="255,230,230" fill="1" layer="-1.00" shape="2076.879147,2461.755863 2053.775696,2453.182221 2055.283191,2449.136732 2047.621100,2446.283852 2046.234706,2449.999489 2031.310050,2444.451405 2051.353386,2390.817498 2066.539875,2396.463159 2064.580988,2401.717869 2071.436340,2404.266358 2073.321851,2399.231792 2097.515689,2408.219286 2091.181327,2424.480314 2060.988531,2413.083487 2052.400923,2435.735711 2082.586619,2447.121140 2076.879147,2461.755863"/>
    <poly id="1077411046" type="leisure" color="207,245,201" fill="1" layer="-2.00" shape="975.087520,2204.097290 966.595079,2210.743222 980.948297,2220.809438 984.346423,2218.115506 975.087520,2204.097290"/>
    <poly id="116297378" type="military" color="153,153,92" fill="1" layer="-3.00" shape="1796.477853,3214.488047 1731.535619,3065.431096 1669.373503,2942.111822 1616.364855,2942.404643 1201.073292,2951.135646 900.077346,2961.566918 667.787942,2968.146552 655.399287,2969.281921 646.084547,2975.011602 640.669168,2985.061821 639.787687,2998.918994 641.907305,3047.420266 646.511963,3176.611933 646.350692,3225.117459 643.454835,3267.637735 658.647915,3270.075483 665.312031,3276.020759 665.825803,3286.306945 648.066476,3292.264555 600.356065,3317.927856 633.405901,3545.560201 648.798546,3549.083663 722.264926,3472.292994 753.932857,3437.011006 762.208409,3435.876510 775.581424,3427.696896 781.113656,3418.807725 811.533403,3405.093037 882.205501,3378.671904 991.001342,3343.526914 1150.074388,3303.313797 1257.090263,3285.751474 1305.123125,3286.117526 1327.934496,3283.875033 1356.726642,3275.506732 1693.153846,3226.074002 1796.477853,3214.488047"/>
   <poly id="117070808" type="water" color="181,209,209" fill="0" layer="-4.00" shape="716.261936,2125.525705 801.568100,2158.121976"/>
    <poly id="117070810" type="water" color="181,209,209" fill="0" layer="-4.00" shape="673.994070,2107.883107 716.261936,2125.525705"/>
    <poly id="121460651" type="building" color="255,230,230" fill="1" layer="-1.00" shape="1990.839745,3105.682206 1988.867432,3098.241198 1951.625097,3108.044990 1953.604803,3115.486223 1990.839745,3105.682206"/>
    <poly id="121460652" type="building" color="255,230,230" fill="1" layer="-1.00" shape="1885.966049,3034.967591 1878.616888,3035.184845 1879.150487,3053.393941 1886.506973,3053.176927 1885.966049,3034.967591"/>
    <poly id="121460653" type="building" color="255,230,230" fill="1" layer="-1.00" shape="1971.012766,3079.012445 1970.322164,3070.389226 1943.208194,3072.555996 1943.898837,3081.179211 1971.012766,3079.012445"/>
    <poly id="121460658" type="building" color="255,230,230" fill="1" layer="-1.00" shape="1948.797868,3096.804323 1975.243942,3093.681238 1974.219754,3085.136178 1947.780989,3088.259508 1948.797868,3096.804323"/>
    <poly id="121460660" type="building" color="255,230,230" fill="1" layer="-1.00" shape="2009.815636,3082.077230 2067.213471,3076.189783 2066.127061,3065.717795 2008.736471,3071.605494 2009.815636,3082.077230"/>
    <poly id="164341642" type="amenity" color="237,199,199" fill="1" layer="-1.00" shape="1301.747665,2649.534435 1313.456901,2640.334057 1310.133280,2635.508769 1298.430883,2644.497975 1301.747665,2649.534435"/>
    <poly id="164341642#1" type="building" color="255,230,230" fill="1" layer="-1.00" shape="1301.747665,2649.534435 1313.456901,2640.334057 1310.133280,2635.508769 1298.430883,2644.497975 1301.747665,2649.534435"/>
    <poly id="164341643" type="building" color="255,230,230" fill="1" layer="-1.00" shape="1296.931004,2644.694155 1315.338457,2631.538432 1311.826693,2626.161855 1307.459780,2628.557160 1304.284792,2623.458533 1297.866433,2627.178169 1301.055256,2632.076965 1292.287815,2637.678730 1296.931004,2644.694155"/>
    <poly id="164341648" type="amenity" color="237,199,199" fill="1" layer="-1.00" shape="980.669922,2774.202239 962.022800,2777.749206 962.569802,2780.626368 964.716066,2791.833257 971.867292,2790.462374 983.370853,2788.275423 980.669922,2774.202239"/>
    <poly id="168853043" type="building" color="255,230,230" fill="1" layer="-1.00" shape="1994.189479,2890.538612 2003.834478,2888.504687 1996.697049,2854.614955 1987.052357,2856.637780 1994.189479,2890.538612"/>
    <poly id="168853078" type="landuse" color="194,194,130" fill="1" layer="-3.00" shape="2036.800503,2972.413764 2044.397302,2962.780651 2052.570470,2954.201065 2060.263980,2948.153841 2072.018405,2944.597597 2094.434642,2947.096270 2502.497836,2669.189682 2324.597076,2605.743340 2375.588160,2457.086182 2517.576427,2097.033436 2662.625260,2152.770063 2691.492484,2078.118800 2999.567672,2190.982963 2881.842795,2538.688877 2810.292400,2512.729079 2781.614325,2590.601505 2719.603680,2759.846954 2625.140217,3013.963711 2654.632165,3023.939011 2662.267050,3026.691760 2528.634908,3080.622075 2397.111903,3121.394774 2354.645104,3130.758550 2316.162491,3135.935399 2093.369475,3055.088546 2036.800503,2972.413764"/>
    <poly id="169723359" type="landuse" color="194,194,130" fill="1" layer="-3.00" shape="406.051050,2552.856722 405.453921,2564.987360 411.031397,2581.166780 427.330874,2607.761231 439.728610,2625.072981 451.485756,2635.554818 458.095316,2639.117002 466.778325,2642.490168 479.433290,2643.154266 492.348903,2640.299769 504.407355,2632.088156 514.887517,2619.208237 521.218664,2601.755081 536.853606,2522.606441 554.912348,2443.369147 540.006549,2453.391399 472.197753,2493.628422 416.146390,2537.761215 406.051050,2552.856722"/>
    <poly id="172367388" type="building" color="255,230,230" fill="1" layer="-1.00" shape="1834.585494,2528.590861 1842.070659,2503.154301 1834.498210,2500.938833 1827.013078,2526.375402 1834.585494,2528.590861"/>
    <poly id="172367389" type="building" color="255,230,230" fill="1" layer="-1.00" shape="1805.869515,2525.187668 1823.812807,2530.443820 1826.640275,2520.866829 1808.704664,2515.599794 1805.869515,2525.187668"/>
    <poly id="172367390" type="building" color="255,230,230" fill="1" layer="-1.00" shape="1882.543299,2538.494408 1893.117739,2541.608637 1896.237030,2542.522271 1902.394388,2521.726843 1888.700969,2517.687852 1882.543299,2538.494408"/>
    <poly id="172367391" type="building" color="255,230,230" fill="1" layer="-1.00" shape="1896.196415,2551.466611 1905.788735,2554.237398 1910.792734,2537.009449 1901.885476,2534.438950 1901.200024,2534.249769 1896.196415,2551.466611"/>
    <poly id="172367392" type="building" color="255,230,230" fill="1" layer="-1.00" shape="1922.373862,2528.395810 1905.091511,2523.405608 1901.885476,2534.438950 1910.792734,2537.009449 1919.167793,2539.429143 1922.373862,2528.395810"/>
    <poly id="174533461" type="landuse" color="194,194,130" fill="1" layer="-3.00" shape="713.252340,2346.986573 714.782745,2346.757841 716.884407,2348.205378 720.254057,2353.220906 722.198028,2357.500560 722.624347,2361.386284 718.341246,2408.801785 718.076446,2409.483064 717.163443,2409.731734 716.415385,2409.429417 716.265553,2408.601231 712.400382,2349.217698 712.721505,2347.703766 713.252340,2346.986573"/>
    <poly id="174533463" type="landuse" color="194,194,130" fill="1" layer="-3.00" shape="704.933888,2350.767905 704.466741,2350.196504 673.812003,2368.978062 673.290306,2370.096100 673.707957,2371.288973 674.795006,2371.802503 677.743383,2371.864325 683.948629,2372.687765 691.261144,2374.993387 696.434280,2377.930889 702.973750,2381.390951 704.722283,2381.925850 705.744649,2381.480435 706.601027,2380.706998 707.002108,2378.995373 704.933888,2350.767905"/>
    <poly id="174533468" type="forest" color="140,196,107" fill="1" layer="-3.00" shape="527.713793,2480.254180 539.277367,2467.097710 539.642220,2461.034529 536.409242,2458.849600 472.790407,2500.345559 434.686425,2529.101995 414.658138,2549.462574 411.497294,2566.717645 415.394001,2580.717757 432.743385,2609.204167 441.067454,2620.743530 446.519217,2624.390750 454.753334,2610.659450 444.341771,2591.075202 433.438557,2587.875257 427.218572,2559.224788 441.294733,2538.182744 481.555019,2508.950719 500.215539,2502.264944 515.936406,2494.794559 527.713793,2480.254180"/>
    <poly id="174533470" type="forest" color="140,196,107" fill="1" layer="-3.00" shape="697.088713,2487.757523 693.670105,2494.968232 689.988346,2497.341629 688.802931,2491.217260 696.275060,2448.477642 691.791294,2424.422420 680.896344,2414.123691 665.614186,2410.726281 654.187298,2412.571479 640.399866,2414.607525 629.164594,2410.517517 622.523144,2405.885988 623.514357,2403.214295 647.992491,2392.054859 657.938189,2388.915678 673.727896,2387.077838 682.340632,2388.535328 691.735005,2393.812141 698.861425,2400.740308 704.315228,2414.123356 705.172368,2426.312089 705.026781,2445.856306 702.357332,2470.648517 697.088713,2487.757523"/>
    <poly id="174533471" type="landuse" color="194,194,130" fill="1" layer="-3.00" shape="732.519208,2332.944367 733.795375,2333.753301 733.764142,2334.720280 727.925004,2345.112802 727.172046,2346.100977 726.350292,2346.029931 722.633796,2340.135345 722.717912,2339.125568 732.519208,2332.944367"/>
    <poly id="174533484" type="forest" color="140,196,107" fill="1" layer="-3.00" shape="195.880034,2632.924578 209.050044,2626.506101 250.523954,2601.105661 340.329826,2545.742383 430.750037,2490.322373 519.861831,2435.606974 547.430551,2414.844705 559.434868,2406.731571 581.929301,2346.463156 621.622776,2233.421624 657.930750,2145.294044 668.684180,2127.405216 661.440903,2124.311912 652.338571,2120.457646 598.527588,2247.763455 565.931640,2342.887173 542.895475,2401.024169 539.786636,2405.708164 508.477932,2426.772619 477.389593,2444.662227 453.580904,2458.124853 425.525684,2477.336440 411.565588,2483.139274 393.534093,2496.788415 363.720043,2517.167475 357.826137,2516.732711 344.862852,2499.147041 337.088688,2499.753198 334.235189,2512.044764 330.141198,2516.941890 314.078416,2522.933093 300.171633,2534.623702 281.198334,2546.462630 254.831520,2552.122005 231.257815,2554.210932 164.895656,2553.520111 102.075776,2554.323749 80.302699,2554.646563 83.595786,2543.537303 69.009032,2537.282204 59.444178,2533.180346 21.947043,2525.776479 -8.323910,2521.987692 -34.901433,2518.195475 -53.216063,2513.923660 -114.026704,2496.391600 -166.337374,2473.970841 -169.569785,2480.231144 -160.443320,2486.076447 -188.640076,2509.770291 -179.554061,2516.415352 -171.876647,2523.393449 -154.973921,2531.535917 -148.499350,2530.842805 -139.212522,2533.755984 -126.879595,2539.637665 -117.751380,2544.737647 -106.391614,2551.366924 -92.117654,2552.938490 -78.975787,2553.794988 -74.925876,2560.322796 -66.098311,2562.186594 -74.221941,2602.035382 -57.068600,2599.171266 -55.519453,2591.722013 -44.471681,2583.799417 -29.348701,2579.101011 -10.761494,2581.067430 41.561830,2581.326685 49.986104,2593.892257 87.470648,2584.528692 150.418150,2583.406357 167.482761,2586.503730 195.880034,2632.924578"/>
    <poly id="175626220" type="building" color="255,230,230" fill="1" layer="-1.00" shape="1017.800421,2803.096925 1017.190594,2792.384774 1034.238515,2791.423189 1034.848310,2802.135344 1017.800421,2803.096925"/>
    <poly id="175626221" type="building" color="255,230,230" fill="1" layer="-1.00" shape="1196.915087,2862.368296 1193.574991,2853.737321 1208.534261,2847.979924 1211.873978,2856.622022 1196.915087,2862.368296"/>
    <poly id="175626222" type="building" color="255,230,230" fill="1" layer="-1.00" shape="1328.155455,2775.217085 1324.823202,2766.575153 1339.782490,2760.829213 1343.122074,2769.471392 1328.155455,2775.217085"/>
    <poly id="187720227" type="landuse" color="194,194,130" fill="1" layer="-3.00" shape="972.196685,2377.429948 996.270027,2364.256153 1013.759041,2350.836075 1040.125514,2331.149844 1072.145009,2306.395017 1080.583544,2295.730890 1078.656901,2283.874618 1082.898463,2278.081535 1216.139017,2302.856265 1242.673235,2311.415077 1244.972933,2317.876097 1216.914308,2331.398236 1189.011554,2355.562354 1169.929989,2370.888585 1140.996234,2395.776132 1113.471235,2423.746906 1096.494447,2436.115124 1081.515914,2464.492115 1056.055778,2506.204243 1024.093133,2562.893549 1009.377945,2582.923335 983.352467,2595.744597 944.961615,2618.057384 903.222283,2650.876672 848.754102,2678.734126 791.637326,2683.842179 746.808946,2700.963645 648.606102,2728.311511 645.604523,2710.534899 683.927398,2700.290014 701.454934,2691.999530 711.017686,2683.162557 717.723456,2670.984436 723.604349,2654.050995 728.521289,2623.912867 733.720045,2526.514166 741.875704,2510.455309 759.301456,2500.325840 797.240777,2483.104175 831.339264,2463.166192 972.196685,2377.429948"/>
    <poly id="201775632" type="building" color="255,230,230" fill="1" layer="-1.00" shape="1341.534798,2048.375079 1351.693249,2063.680364 1364.838900,2055.149655 1354.468239,2039.581562 1341.534798,2048.375079"/>
    <poly id="201775633" type="building" color="255,230,230" fill="1" layer="-1.00" shape="1579.626455,2136.594895 1577.803651,2141.976558 1574.703890,2151.110889 1606.670326,2161.883805 1611.592968,2147.367838 1579.626455,2136.594895"/>
    <poly id="201775634" type="building" color="255,230,230" fill="1" layer="-1.00" shape="1504.418841,2113.971794 1500.057063,2113.018098 1489.950903,2142.397785 1513.713535,2150.445166 1524.091991,2120.840694 1504.418841,2113.971794"/>
    <poly id="201775646" type="parking" color="184,184,179" fill="1" layer="-1.00" shape="1351.693249,2063.680364 1347.525801,2066.037620 1353.699199,2074.437813 1355.580681,2077.002220 1372.338601,2097.773073 1378.118741,2102.867145 1381.459804,2105.801535 1392.229808,2088.159275 1368.978257,2052.524467 1364.838900,2055.149655 1351.693249,2063.680364"/>
    <poly id="201775647" type="parking" color="184,184,179" fill="1" layer="-1.00" shape="1423.703711,2125.718592 1422.250155,2130.155399 1419.415835,2137.918736 1478.669338,2159.244433 1483.665564,2161.053169 1489.950903,2142.397785 1500.057063,2113.018098 1501.942061,2103.221255 1491.125419,2099.376755 1490.073640,2102.313390 1475.175383,2144.010365 1423.703711,2125.718592"/>
    <poly id="220023514" type="building" color="255,230,230" fill="1" layer="-1.00" shape="1450.772252,2004.806841 1470.723632,1990.855959 1453.897124,1966.299620 1435.357059,1979.840139 1450.772252,2004.806841"/>
    <poly id="220023514#1" type="shop" color="237,199,255" fill="1" layer="-1.00" shape="1450.772252,2004.806841 1470.723632,1990.855959 1453.897124,1966.299620 1435.357059,1979.840139 1450.772252,2004.806841"/>
    <poly id="220023515" type="building" color="255,230,230" fill="1" layer="-1.00" shape="1470.723632,1990.855959 1503.494898,1967.318290 1486.208754,1942.869335 1453.897124,1966.299620 1470.723632,1990.855959"/>
    <poly id="220768198" type="building" color="255,230,230" fill="1" layer="-1.00" shape="2184.175178,2237.567329 2208.568512,2246.773168 2213.606504,2233.507562 2229.408281,2239.474097 2236.547138,2220.669180 2221.348497,2214.933671 2219.585722,2219.582767 2179.615710,2204.495669 2174.536688,2217.893483 2189.495340,2223.543165 2184.175178,2237.567329"/>
    <poly id="220768199" type="building" color="255,230,230" fill="1" layer="-1.00" shape="1950.515143,2953.295472 1962.622329,2954.045289 1963.151642,2945.461752 1951.044438,2944.711934 1950.515143,2953.295472"/>
    <poly id="220768200" type="building" color="255,230,230" fill="1" layer="-1.00" shape="1957.400630,2733.660636 1967.486482,2731.652097 1965.080116,2719.679654 1955.001594,2721.688437 1957.400630,2733.660636"/>
    <poly id="220768201" type="building" color="255,230,230" fill="1" layer="-1.00" shape="1871.634121,2960.087956 1904.595614,2958.878662 1903.923149,2940.642794 1870.961550,2941.852095 1871.634121,2960.087956"/>
    <poly id="220768203" type="building" color="255,230,230" fill="1" layer="-1.00" shape="1655.714507,2213.678008 1657.255052,2214.273212 1660.223493,2209.640853 1660.175728,2204.765935 1658.821099,2204.110007 1655.695871,2208.358980 1655.714507,2213.678008"/>
    <poly id="220768206" type="parking" color="184,184,179" fill="1" layer="-1.00" shape="1724.273088,1887.674820 1795.687784,1900.286138 1794.021480,1908.543444 1790.451788,1926.240882 1787.074874,1942.987712 1784.829951,1954.107967 1783.085242,1962.741026 1716.147789,1948.461595 1717.118864,1941.216454 1718.631360,1929.760858 1720.844887,1913.031855 1723.281525,1895.097318 1724.273088,1887.674820"/>
    <poly id="221087401" type="building" color="255,230,230" fill="1" layer="-1.00" shape="826.167770,2087.686175 819.607779,2076.881957 784.540409,2098.046101 791.093445,2108.838924 826.167770,2087.686175"/>
    <poly id="221087408" type="building" color="255,230,230" fill="1" layer="-1.00" shape="818.445447,2419.790792 871.275196,2389.654696 857.477083,2365.609773 804.647201,2395.746002 818.445447,2419.790792"/>
    <poly id="23201876" type="forest" color="140,196,107" fill="1" layer="-3.00" shape="774.029298,2840.799683 778.831229,2856.576199 782.789406,2872.280952 792.158254,2881.050831 803.381467,2880.245256 820.100804,2882.610318 853.699197,2871.702134 878.774124,2850.004186 899.128919,2818.206775 908.978538,2808.010868 913.506327,2798.354974 906.095612,2787.957002 904.390730,2779.023061 911.390327,2766.187072 921.443975,2759.013016 942.068957,2760.280823 963.793190,2758.724792 973.532136,2751.729794 969.828046,2735.688186 974.596888,2724.271042 983.312233,2722.539087 990.462797,2727.332196 994.684918,2733.499257 1006.080324,2744.437935 1023.069842,2739.146270 1035.398800,2730.098914 1043.732163,2719.709519 1097.244887,2688.663111 1119.363941,2683.103828 1148.103415,2687.349896 1181.481030,2685.137245 1199.528525,2679.902608 1220.401435,2677.841544 1244.561423,2656.070968 1251.007719,2632.636250 1264.940207,2614.762466 1292.213035,2609.559955 1306.265075,2602.760882 1326.117106,2601.790877 1343.955386,2608.699911 1375.496045,2644.336442 1399.219121,2647.186152 1427.213734,2635.153843 1463.185828,2644.609551 1478.115136,2637.761468 1487.488101,2629.375771 1491.242044,2615.033219 1487.998690,2603.200792 1456.680366,2582.046252 1459.439491,2556.634038 1467.981337,2538.941937 1482.861797,2524.081263 1520.528183,2513.308829 1537.800017,2513.869176 1545.882651,2506.031397 1554.165469,2505.176379 1560.913324,2511.492602 1587.608354,2503.491133 1607.179312,2493.967895 1618.484174,2480.704972 1625.285577,2464.970466 1627.049495,2452.788671 1619.500016,2444.421343 1613.169319,2437.039330 1538.199532,2415.380114 1506.205063,2398.709609 1476.998793,2397.016836 1446.637093,2387.164486 1415.364176,2393.160114 1392.548162,2390.439940 1375.989818,2379.433266 1355.458619,2350.028369 1328.308757,2346.400289 1300.255910,2347.705447 1259.146037,2359.146695 1232.660238,2372.953349 1204.303352,2397.058171 1158.126124,2442.772105 1116.341493,2495.549153 1095.544874,2527.287088 1078.432292,2558.866155 1061.358597,2585.384034 1041.247904,2613.450389 1018.135584,2630.148706 994.560859,2639.766925 971.821270,2648.588901 944.878068,2654.537941 912.254018,2679.863513 889.205014,2697.810522 865.863093,2712.988819 841.878707,2722.327371 820.086612,2727.119448 799.676688,2730.576608 780.217034,2743.332770 763.649810,2764.482678 756.719791,2779.958018 753.876365,2806.257782 754.097797,2822.175572 768.185427,2836.549756 774.029298,2840.799683"/>
    <poly id="268133889" type="building" color="255,230,230" fill="1" layer="-1.00" shape="2213.756440,2044.507090 2283.944539,2070.525648 2294.474911,2042.262490 2224.286850,2016.232694 2213.756440,2044.507090"/>
    <poly id="268133896" type="building" color="255,230,230" fill="1" layer="-1.00" shape="2287.910603,1934.533528 2314.571749,1943.958270 2328.278945,1955.742711 2318.489621,1983.384627 2301.402764,1975.284241 2303.016271,1972.510676 2274.749872,1962.221466 2280.202065,1945.286531 2283.190534,1946.385252 2287.910603,1934.533528"/>
    <poly id="28124185" type="forest" color="140,196,107" fill="1" layer="-3.00" shape="732.618191,2942.791906 732.015973,2906.322630 874.401907,2904.003575 874.762188,2925.400039 875.010552,2940.473126 732.618191,2942.791906"/>
    <poly id="28124185#1" type="leisure" color="207,245,201" fill="1" layer="-2.00" shape="732.618191,2942.791906 732.015973,2906.322630 874.401907,2904.003575 874.762188,2925.400039 875.010552,2940.473126 732.618191,2942.791906"/>
    <poly id="28124185#2" type="sport" color="79,230,125" fill="1" layer="-2.00" shape="732.618191,2942.791906 732.015973,2906.322630 874.401907,2904.003575 874.762188,2925.400039 875.010552,2940.473126 732.618191,2942.791906"/>
    <poly id="28124231" type="forest" color="140,196,107" fill="1" layer="-3.00" shape="644.894783,2881.078261 677.828817,2879.794104 678.343396,2903.042462 721.018698,2891.937093 690.748128,2774.077450 633.021648,2796.969453 644.270493,2837.754514 644.894783,2881.078261"/>
    <poly id="290512107" type="commercial" color="209,209,204" fill="1" layer="-3.00" shape="1194.972497,1930.583977 1218.626920,1914.515720 1220.185557,1911.829108 1219.679840,1908.586090 1204.801409,1887.909999 1198.713594,1884.352730 1195.411559,1884.523978 1189.978427,1887.563588 1172.452251,1901.393683 1174.429794,1903.950004 1169.037044,1906.879676 1161.933586,1909.920871 1153.213992,1909.015540 1144.255828,1905.932863 1133.827628,1898.708127 1059.692973,1840.733141 1042.456661,1826.957455 1028.441564,1818.237237 1014.191051,1819.979316 1004.268495,1827.825115 996.923794,1836.733416 986.200745,1856.592040 1074.773769,2001.629452 1192.296065,1927.114912 1194.972497,1930.583977"/>
    <poly id="29122620" type="forest" color="140,196,107" fill="1" layer="-3.00" shape="1155.399499,2612.205026 1146.915625,2611.552053 1134.196456,2607.412947 1125.810551,2601.233378 1120.027373,2588.061713 1122.174968,2578.084132 1118.874392,2561.176495 1122.915933,2555.421479 1122.721562,2549.607230 1130.558175,2539.802685 1138.246399,2525.264646 1151.823739,2509.493100 1163.814288,2492.513066 1177.502308,2478.781283 1185.039133,2470.969843 1194.239661,2462.222041 1196.896858,2456.733781 1201.091792,2452.608230 1208.894346,2442.046086 1241.002184,2420.477212 1254.144170,2410.666645 1259.695835,2408.042636 1263.998876,2404.443569 1270.444435,2398.755397 1277.186098,2401.187949 1286.544728,2403.237985 1295.652260,2402.364793 1299.620953,2406.587885 1300.466038,2411.388481 1301.552273,2419.646065 1303.105454,2429.387461 1296.671597,2437.212239 1286.914659,2450.637186 1280.968807,2462.249629 1273.439582,2472.319848 1265.471558,2482.309102 1256.006140,2491.281865 1243.755972,2495.825156 1232.192407,2501.659117 1219.163373,2520.029557 1211.258605,2534.204441 1202.629615,2547.343382 1189.839728,2557.198830 1178.979298,2566.771865 1172.434707,2578.253755 1169.034389,2589.425785 1167.816241,2595.917516 1165.663009,2601.522241 1155.399499,2612.205026"/>
    <poly id="29122620#1" type="water" color="181,209,209" fill="1" layer="-4.00" shape="1155.399499,2612.205026 1146.915625,2611.552053 1134.196456,2607.412947 1125.810551,2601.233378 1120.027373,2588.061713 1122.174968,2578.084132 1118.874392,2561.176495 1122.915933,2555.421479 1122.721562,2549.607230 1130.558175,2539.802685 1138.246399,2525.264646 1151.823739,2509.493100 1163.814288,2492.513066 1177.502308,2478.781283 1185.039133,2470.969843 1194.239661,2462.222041 1196.896858,2456.733781 1201.091792,2452.608230 1208.894346,2442.046086 1241.002184,2420.477212 1254.144170,2410.666645 1259.695835,2408.042636 1263.998876,2404.443569 1270.444435,2398.755397 1277.186098,2401.187949 1286.544728,2403.237985 1295.652260,2402.364793 1299.620953,2406.587885 1300.466038,2411.388481 1301.552273,2419.646065 1303.105454,2429.387461 1296.671597,2437.212239 1286.914659,2450.637186 1280.968807,2462.249629 1273.439582,2472.319848 1265.471558,2482.309102 1256.006140,2491.281865 1243.755972,2495.825156 1232.192407,2501.659117 1219.163373,2520.029557 1211.258605,2534.204441 1202.629615,2547.343382 1189.839728,2557.198830 1178.979298,2566.771865 1172.434707,2578.253755 1169.034389,2589.425785 1167.816241,2595.917516 1165.663009,2601.522241 1155.399499,2612.205026"/>