<?xml version="1.0" encoding="UTF-8"?>

<!-- generated on 2022-07-21 11:13:15 by Eclipse SUMO duarouter Version 1.12.0
<configuration xmlns:xsi="http://www.w3.org/2001/XMLSchema-instance" xsi:noNamespaceSchemaLocation="http://sumo.dlr.de/xsd/duarouterConfiguration.xsd">

    <input>
        <net-file value="5GoIng.net.xml"/>
        <route-files value="trips.trips.xml"/>
    </input>

    <output>
        <output-file value="routes.rou.xml"/>
        <alternatives-output value="routes.rou.alt.xml"/>
    </output>

    <processing>
        <repair value="true"/>
    </processing>

    <report>
        <no-warnings value="true"/>
        <ignore-errors value="true"/>
    </report>

    <random_number>
        <random value="true"/>
    </random_number>

</configuration>
-->

<routes xmlns:xsi="http://www.w3.org/2001/XMLSchema-instance" xsi:noNamespaceSchemaLocation="http://sumo.dlr.de/xsd/routes_file.xsd">
    <vehicle id="0" depart="0.00">
        <route edges="767516508#4 767516508#5 -1051035543#1 -1051035543#0 -1051035539"/>
    </vehicle>
    <vehicle id="2" depart="3.00">
        <route edges="767516516#0 767516516#1 -1042026729 -146973220#1 -146973220#0 -146973201#3 -146973201#2 -146973201#1 -146973201#0 -1016166670#1 -1016166670#0 865774625 767516521#0 767516521#1 767516523#2 767516523#3 767516523#4 767516518#0 767516518#1 767516512 865774623#0 865774623#1 -1051035540#2 -1051035541 -767516508#1 -767516508#0 767516509#0 767516509#1"/>
    </vehicle>
    <vehicle id="4" depart="6.00">
        <route edges="1051035543#0 1051035543#1 -767516508#5 -767516508#4 -767516508#3 1051035542 -1051035540#0"/>
    </vehicle>
    <vehicle id="5" depart="7.50">
        <route edges="-582810642#0 -700272077 -203971377#1 -203971377#0 -891480514 -146973200#5 -146973200#4 -146973200#3 -146973200#2 -146973200#1 -146973200#0 -1016166670#1 -1016166670#0 865774625 865774624#0 865774624#1 865774624#2 164051425#0 164051425#1"/>
    </vehicle>
    <vehicle id="7" depart="10.50">
        <route edges="767516508#5 -1051035543#1 1051035540#0 -1051035542 -767516508#2 -767516508#1 -767516508#0 -767516511 767516519#0 767516519#1 767516523#4 767516523#5 767516523#6 767516523#7 767516523#0 767516522#0 767516522#1 1016166670#0 1016166670#1 146973200#0 146973200#1 146973200#2 146973200#3 146973200#4 146973200#5 891480514 203971377#0 203971377#1 39704293#0 39704293#1"/>
    </vehicle>
    <vehicle id="8" depart="12.00">
        <route edges="-582810642#1 -582810642#0 -700272077 -203971377#1 -203971377#0 -891480514 -146973200#5 -146973200#4 -146973200#3 -146973200#2 -146973200#1 -146973200#0 -1016166670#1 -1016166670#0 865774625 767516521#0 767516521#1 767516523#2 767516523#3 767516523#4 767516523#5 767516523#6 767516523#7 767516523#0 767516522#0 767516522#1 1016166670#0 1016166670#1 146973200#0 146973200#1 146973200#2 146973200#3 146973200#4 146973200#5 891480514 203971377#0 203971377#1 700272077 582810642#0 582810642#1 582810642#2 582810642#3 582810642#4 700272076#0 700272076#1"/>
    </vehicle>
    <vehicle id="9" depart="13.50">
        <route edges="767516521#1 767516523#2 767516523#3 767516523#4 767516523#5 767516523#6 767516516#0 767516516#1 -1042026729 -146973220#1 -146973220#0 -146973201#3 -146973201#2 -146973201#1 -146973201#0 -1016166670#1 -1016166670#0"/>
    </vehicle>
    <vehicle id="11" depart="16.50">
        <route edges="-865774623#2 -865774623#1 -865774623#0 -767516512 767516517#0 767516517#1 767516523#6 767516516#0 767516516#1 -1042026729 -146973220#1"/>
    </vehicle>
    <vehicle id="14" depart="21.00">
        <route edges="767516523#2 767516523#3 767516523#4 767516523#5 767516523#6 767516523#7 767516523#0 767516522#0 767516522#1 1016166670#0 1016166670#1 146973200#0 146973200#1 146973200#2 146973200#3 146973200#4 146973200#5 891480514 203971377#0 203971377#1 700272077"/>
    </vehicle>
    <vehicle id="15" depart="22.50">
        <route edges="767516521#0 767516521#1 767516523#2 767516523#3 767516523#4 767516523#5 767516523#6 767516523#7 767516523#0 767516522#0 767516522#1 1016166670#0 1016166670#1 146973201#0 146973201#1 146973201#2 146973201#3 146973220#0 146973220#1 1042026729 767516515#0 767516515#1"/>
    </vehicle>
    <vehicle id="17" depart="25.50">
        <route edges="1051035539 1051035543#0 1051035540#0 -1051035542 -767516508#2 -767516508#1 -767516508#0 -767516511 767516519#0 767516519#1 767516523#4 767516523#5 767516523#6 767516523#7 767516523#0 767516522#0 767516522#1 1016166670#0 1016166670#1 146973200#0 146973200#1 146973200#2 146973200#3 146973200#4 146973200#5 891480514 203971377#0 203971377#1 700272077 582810642#0"/>
    </vehicle>
    <vehicle id="18" depart="27.00">
        <route edges="767516523#0 767516523#1 767516523#2 767516520#0 767516520#1 767516511 767516508#0 767516508#1"/>
    </vehicle>
    <vehicle id="19" depart="28.50">
        <route edges="767516523#4 767516523#5 767516523#6 767516523#7 767516523#0 767516522#0 767516522#1 1016166670#0 1016166670#1 146973200#0 146973200#1 146973200#2 146973200#3 146973200#4 146973200#5 891480514 203971377#0 203971377#1 700272077 582810642#0 582810642#1 582810642#2 582810642#3 582810642#4"/>
    </vehicle>
    <vehicle id="20" depart="30.00">
        <route edges="767516510#2 767516509#0 767516509#1 767516509#2 767516512 865774623#0 865774623#1 -1051035540#2"/>
    </vehicle>
    <vehicle id="23" depart="34.50">
        <route edges="-146973200#3 -146973200#2 -146973200#1 -146973200#0 -1016166670#1 -1016166670#0 865774625 767516521#0 767516521#1 767516523#2 767516520#0 767516520#1 767516511 767516508#0 767516508#1 767516508#2 767516508#3 767516508#4 865774620#0 865774620#1 865774620#2 865774620#3 865774620#4 905401682#0 905401682#1 905401682#2 -767516508#6 -767516508#5"/>
    </vehicle>
    <vehicle id="24" depart="36.00">
        <route edges="767516508#3 767516508#4 767516508#5 -1051035543#1 1051035540#0"/>
    </vehicle>
    <vehicle id="26" depart="39.00">
        <route edges="-767516508#1 -767516508#0 767516509#0 767516509#1 767516509#2 767516512 865774623#0 865774623#1 865774623#2"/>
    </vehicle>
    <vehicle id="27" depart="40.50">
        <route edges="767516508#5 -1051035543#1 1051035540#0 -1051035542 -767516508#2 -767516508#1 -767516508#0 -767516511 767516519#0 767516519#1 767516523#4 767516523#5 767516523#6 767516523#7 767516523#0 767516522#0 767516522#1 1016166670#0 1016166670#1 146973200#0 146973200#1 146973200#2 146973200#3 146973200#4 146973200#5 891480514 203971377#0 203971377#1 700272077"/>
    </vehicle>
    <vehicle id="28" depart="42.00">
        <route edges="-164051425#1 -164051425#0 767516510#0 767516510#1 767516510#2 -767516511 767516519#0 767516519#1 767516523#4 767516523#5 767516523#6 767516523#7 767516523#0 767516522#0 767516522#1 1016166670#0 1016166670#1 146973201#0 146973201#1 146973201#2 146973201#3 146973220#0 146973220#1 1042026729 767516515#0 767516515#1"/>
    </vehicle>
    <vehicle id="29" depart="43.50">
        <route edges="-164051425#0 767516510#0 767516510#1 767516510#2 767516508#0 767516508#1 1051035541 1051035540#2"/>
    </vehicle>
    <vehicle id="30" depart="45.00">
        <route edges="905401682#1 905401682#2 -767516508#6 -1051035543#1 1051035540#0 -1051035542 767516508#3 767516508#4"/>
    </vehicle>
    <vehicle id="32" depart="48.00">
        <route edges="767516523#2 767516523#3 767516523#4 767516518#0 767516518#1 767516512 865774623#0 865774623#1 -1051035540#2 -1051035541 -767516508#1 -767516508#0 -767516511 767516519#0"/>
    </vehicle>
    <vehicle id="33" depart="49.50">
        <route edges="-582810642#2 -582810642#1 -582810642#0 -700272077 -203971377#1 -203971377#0 -891480514 -146973200#5 -146973200#4 -146973200#3 -146973200#2 -146973200#1 -146973200#0 -1016166670#1 -1016166670#0 865774625 767516521#0 767516521#1 767516523#2 767516520#0 767516520#1 767516511 767516508#0 767516508#1 767516508#2 1051035542 -1051035540#0"/>
    </vehicle>
    <vehicle id="34" depart="51.00">
        <route edges="-767516512 767516517#0 767516517#1 767516523#6 767516523#7 767516523#0 767516523#1 767516523#2 767516520#0 767516520#1 767516511 767516508#0 767516508#1 767516508#2 767516508#3 767516508#4 865774620#0 865774620#1 865774620#2 865774620#3 865774620#4 905401682#0 905401682#1 905401682#2 -767516508#6 -767516508#5 -767516508#4"/>
    </vehicle>
    <vehicle id="35" depart="52.50">
        <route edges="-39704293#1 -39704293#0 -203971377#1 -203971377#0 -891480514 -146973200#5 -146973200#4 -146973200#3 -146973200#2 -146973200#1 -146973200#0 -1016166670#1 -1016166670#0 865774625 767516521#0 767516521#1 767516523#2 767516523#3 767516523#4 767516518#0 767516518#1 767516512 865774623#0 865774623#1 865774623#2 865774623#3"/>
    </vehicle>
    <vehicle id="36" depart="54.00">
        <route edges="767516523#6 767516523#7 767516523#0 767516523#1 767516523#2 767516520#0 767516520#1 767516511 767516508#0 767516508#1 1051035541 1051035540#2 -865774623#1 -865774623#0"/>
    </vehicle>
    <vehicle id="38" depart="57.00">
        <route edges="865774620#3 865774620#4 905401682#0 905401682#1 905401682#2 -767516508#6 -767516508#5 -767516508#4 -767516508#3 -767516508#2 -767516508#1 -767516508#0 -767516511 767516519#0 767516519#1 767516523#4 767516523#5 767516523#6 767516523#7 767516523#0 767516522#0 767516522#1 1016166670#0 1016166670#1 146973201#0"/>
    </vehicle>
    <vehicle id="39" depart="58.50">
        <route edges="-767516508#1"/>
    </vehicle>
    <vehicle id="43" depart="64.50">
        <route edges="905401682#2 -767516508#6 -767516508#5 -767516508#4 -767516508#3 -767516508#2 -767516508#1 -767516508#0 -767516511 767516519#0 767516519#1 767516523#4 767516523#5 767516523#6 767516516#0 767516516#1 -1042026729 -146973220#1 -146973220#0 -146973201#3 -146973201#2 -146973201#1 -146973201#0 -1016166670#1 -1016166670#0 865774625 865774624#0 865774624#1 865774624#2 164051425#0 164051425#1 164051425#2"/>
    </vehicle>
    <vehicle id="44" depart="66.00">
        <route edges="-146973200#2 -146973200#1 -146973200#0 -1016166670#1 -1016166670#0 865774625 767516521#0 767516521#1 767516523#2 767516523#3 767516523#4 767516518#0 767516518#1 767516512 865774623#0 865774623#1 -1051035540#2"/>
    </vehicle>
    <vehicle id="45" depart="67.50">
        <route edges="-146973200#5 -146973200#4 -146973200#3 -146973200#2 -146973200#1 -146973200#0 -1016166670#1 -1016166670#0 865774625 767516521#0 767516521#1 767516523#2 767516520#0 767516520#1 767516511 767516508#0 767516508#1 767516508#2"/>
    </vehicle>
    <vehicle id="46" depart="69.00">
        <route edges="767516520#0 767516520#1 767516511 767516508#0 767516508#1 1051035541 1051035540#2 -865774623#1 -865774623#0 -767516512 767516517#0 767516517#1 767516523#6 767516523#7 767516523#0 767516522#0 767516522#1 1016166670#0 1016166670#1 146973200#0 146973200#1"/>
    </vehicle>
    <vehicle id="47" depart="70.50">
        <route edges="-1051035543#0 -1051035539 -865774623#2 -865774623#1 -865774623#0 -767516512 767516517#0 767516517#1 767516523#6 767516523#7 767516523#0 767516523#1 767516523#2 767516520#0 767516520#1 767516511 767516508#0 767516508#1 1051035541 1051035540#2"/>
    </vehicle>
    <vehicle id="48" depart="72.00">
        <route edges="905401682#2 -767516508#6 -767516508#5 -767516508#4 -767516508#3 -767516508#2 -767516508#1 -767516508#0 -767516511 767516519#0 767516519#1 767516523#4 767516523#5 767516523#6 767516523#7 767516523#0 767516522#0 767516522#1 1016166670#0 1016166670#1 146973200#0 146973200#1 146973200#2 146973200#3 146973200#4 146973200#5 891480514 203971377#0 203971377#1"/>
    </vehicle>
    <vehicle id="49" depart="73.50">
        <route edges="865774625 767516521#0 767516521#1 767516523#2 767516523#3 767516523#4"/>
    </vehicle>
    <vehicle id="50" depart="75.00">
        <route edges="-1016166670#1 -1016166670#0 865774625 767516521#0 767516521#1 767516523#2 767516523#3 767516523#4 767516523#5 767516523#6 767516523#7 767516523#0 767516522#0 767516522#1 1016166670#0 1016166670#1 146973201#0 146973201#1 146973201#2 146973201#3 146973220#0 146973220#1 1042026729 767516515#0"/>
    </vehicle>
    <vehicle id="51" depart="76.50">
        <route edges="767516509#2 767516512 865774623#0 865774623#1 -1051035540#2 -1051035541 -767516508#1 -767516508#0 -767516511 767516519#0 767516519#1 767516523#4 767516523#5 767516523#6 767516523#7 767516523#0 767516522#0 767516522#1 1016166670#0 1016166670#1 146973200#0 146973200#1 146973200#2 146973200#3 146973200#4 146973200#5 891480514 203971377#0 203971377#1 39704293#0"/>
    </vehicle>
    <vehicle id="52" depart="78.00">
        <route edges="-767516508#1 -767516508#0 -767516511 767516519#0 767516519#1 767516523#4 767516523#5 767516523#6 767516523#7 767516523#0 767516523#1 767516523#2 767516520#0 767516520#1 767516511 767516508#0 767516508#1 767516508#2 767516508#3 767516508#4"/>
    </vehicle>
    <vehicle id="53" depart="79.50">
        <route edges="-146973200#5 -146973200#4 -146973200#3 -146973200#2 -146973200#1 -146973200#0 -1016166670#1 -1016166670#0 865774625 767516521#0 767516521#1 767516523#2 767516523#3 767516523#4 767516523#5 767516523#6 767516523#7 767516523#0 767516522#0 767516522#1 1016166670#0 1016166670#1 146973200#0 146973200#1 146973200#2 146973200#3"/>
    </vehicle>
    <vehicle id="55" depart="82.50">
        <route edges="767516523#6 767516523#7 767516523#0 767516523#1 767516523#2 767516520#0 767516520#1 767516511 767516508#0 767516508#1 767516508#2 767516508#3 767516508#4 865774620#0 865774620#1 865774620#2 865774620#3 865774620#4 905401682#0 905401682#1 905401682#2 -767516508#6 -767516508#5 -767516508#4 -767516508#3"/>
    </vehicle>
    <vehicle id="57" depart="85.50">
        <route edges="865774620#3 865774620#4 905401682#0 905401682#1 905401682#2 -767516508#6 -767516508#5 -767516508#4 -767516508#3 -767516508#2 -767516508#1 -767516508#0 -767516511 767516519#0 767516519#1 767516523#4 767516523#5 767516523#6"/>
    </vehicle>
    <vehicle id="58" depart="87.00">
        <route edges="-767516508#6 -1051035543#1 1051035540#0 -1051035542 767516508#3 767516508#4"/>
    </vehicle>
    <vehicle id="60" depart="90.00">
        <route edges="767516518#0 767516518#1 767516512 865774623#0 865774623#1 -1051035540#2 -1051035541 -767516508#1 -767516508#0 -767516511 767516519#0 767516519#1 767516523#4 767516523#5 767516523#6 767516523#7 767516523#0 767516522#0 767516522#1 1016166670#0 1016166670#1 146973200#0 146973200#1 146973200#2 146973200#3 146973200#4 146973200#5 891480514 203971377#0 203971377#1 39704293#0"/>
    </vehicle>
    <vehicle id="61" depart="91.50">
        <route edges="767516519#0 767516519#1 767516523#4 767516523#5 767516523#6 767516523#7 767516523#0 767516522#0 767516522#1 1016166670#0 1016166670#1 146973200#0 146973200#1 146973200#2 146973200#3 146973200#4 146973200#5 891480514 203971377#0 203971377#1"/>
    </vehicle>
    <vehicle id="62" depart="93.00">
        <route edges="-1016166670#0 865774625 767516521#0 767516521#1 767516523#2 767516520#0 767516520#1 767516511 767516508#0 767516508#1 767516508#2 1051035542 -1051035540#0 -1051035543#0 -1051035539 -865774623#2"/>
    </vehicle>
    <vehicle id="63" depart="94.50">
        <route edges="-1042026729 -146973220#1 -146973220#0 -146973201#3 -146973201#2 -146973201#1 -146973201#0 -1016166670#1 -1016166670#0 865774625 767516521#0 767516521#1 767516523#2 767516523#3 767516523#4 767516518#0 767516518#1 767516512 865774623#0 865774623#1"/>
    </vehicle>
    <vehicle id="64" depart="96.00">
        <route edges="767516523#7 767516523#0"/>
    </vehicle>
    <vehicle id="65" depart="97.50">
        <route edges="-767516508#7 -767516508#6 -1051035543#1 1051035540#0 -1051035542"/>
    </vehicle>
    <vehicle id="66" depart="99.00">
        <route edges="767516523#7 767516523#0 767516523#1 767516523#2 767516523#3 767516523#4 767516523#5 767516523#6 767516516#0 767516516#1 -1042026729 -146973220#1 -146973220#0 -146973201#3 -146973201#2 -146973201#1 -146973201#0 -1016166670#1 -1016166670#0 865774625 865774624#0"/>
    </vehicle>
    <vehicle id="67" depart="100.50">
        <route edges="-146973200#1 -146973200#0 146973201#0 146973201#1 146973201#2 146973201#3 146973220#0"/>
    </vehicle>
    <vehicle id="68" depart="102.00">
        <route edges="-1051035543#1 1051035540#0 -1051035542 -767516508#2 -767516508#1 -767516508#0 -767516511 767516519#0 767516519#1 767516523#4 767516518#0"/>
    </vehicle>
    <vehicle id="69" depart="103.50">
        <route edges="767516518#0 767516518#1 767516512 865774623#0 865774623#1 -1051035540#2 -1051035541 -767516508#1 -767516508#0 -767516511 767516519#0 767516519#1 767516523#4 767516523#5 767516523#6 767516516#0 767516516#1 -1042026729 -146973220#1 -146973220#0 -146973201#3 -146973201#2 -146973201#1"/>
    </vehicle>
    <vehicle id="70" depart="105.00">
        <route edges="146973201#0 146973201#1 146973201#2 146973201#3 146973220#0 146973220#1 1042026729 767516515#0 767516515#1 767516523#0 767516522#0 767516522#1 1016166670#0 1016166670#1 146973200#0 146973200#1 146973200#2 146973200#3 146973200#4 146973200#5 891480514 203971377#0 203971377#1 700272077 582810642#0"/>
    </vehicle>
    <vehicle id="71" depart="106.50">
        <route edges="-767516508#1 -767516508#0 -767516511 767516519#0 767516519#1 767516523#4 767516523#5 767516523#6"/>
    </vehicle>
    <vehicle id="74" depart="111.00">
        <route edges="-39704293#0 -203971377#1 -203971377#0 -891480514 -146973200#5 -146973200#4 -146973200#3 -146973200#2 -146973200#1 -146973200#0 -1016166670#1 -1016166670#0 865774625 767516521#0 767516521#1 767516523#2 767516520#0 767516520#1 767516511 767516508#0 767516508#1 1051035541 1051035540#2 -865774623#1 -865774623#0"/>
    </vehicle>
    <vehicle id="75" depart="112.50">
        <route edges="905401682#2 -767516508#6 -1051035543#1 1051035540#0 -1051035542 767516508#3 767516508#4 767516508#5"/>
    </vehicle>
    <vehicle id="78" depart="117.00">
        <route edges="-865774623#2 -865774623#1 -865774623#0 -767516512 767516517#0 767516517#1 767516523#6 767516523#7 767516523#0 767516522#0 767516522#1 1016166670#0 1016166670#1 146973200#0 146973200#1 146973200#2 146973200#3 146973200#4 146973200#5 891480514 203971377#0 203971377#1 700272077 582810642#0 582810642#1 582810642#2 582810642#3 582810642#4 700272076#0"/>
    </vehicle>
    <vehicle id="80" depart="120.00">
        <route edges="-1051035543#1 1051035540#0 -1051035542 767516508#3"/>
    </vehicle>
    <vehicle id="81" depart="121.50">
        <route edges="-582810642#2 -582810642#1 -582810642#0 -700272077 -203971377#1 -203971377#0 -891480514 -146973200#5 -146973200#4 -146973200#3 -146973200#2 -146973200#1 -146973200#0 -1016166670#1 -1016166670#0 865774625 767516521#0 767516521#1 767516523#2 767516520#0 767516520#1 767516511 767516508#0 767516508#1 767516508#2 767516508#3 767516508#4 865774620#0 865774620#1 865774620#2 865774620#3"/>
    </vehicle>
    <vehicle id="82" depart="123.00">
        <route edges="767516523#4 767516523#5 767516523#6 767516523#7 767516523#0 767516523#1 767516523#2 767516520#0 767516520#1 767516511 767516508#0 767516508#1 767516508#2 767516508#3 767516508#4 767516508#5 -1051035543#1"/>
    </vehicle>
    <vehicle id="83" depart="124.50">
        <route edges="-582810642#3 -582810642#2 -582810642#1 -582810642#0 -700272077 -203971377#1 -203971377#0 -891480514 -146973200#5 -146973200#4 -146973200#3 -146973200#2 -146973200#1 -146973200#0 -1016166670#1 -1016166670#0 865774625 767516521#0 767516521#1 767516523#2 767516523#3 767516523#4 767516518#0 767516518#1 767516512 865774623#0 865774623#1 -1051035540#2 -1051035541 -767516508#1 -767516508#0 767516509#0"/>
    </vehicle>
    <vehicle id="84" depart="126.00">
        <route edges="-582810642#0 -700272077 -203971377#1 -203971377#0 -891480514 -146973200#5 -146973200#4 -146973200#3 -146973200#2 -146973200#1 -146973200#0 -1016166670#1 -1016166670#0 865774625 767516521#0 767516521#1 767516523#2 767516523#3 767516523#4 767516523#5 767516523#6 767516516#0 767516516#1 -1042026729 -146973220#1 -146973220#0 -146973201#3 -146973201#2"/>
    </vehicle>
    <vehicle id="85" depart="127.50">
        <route edges="865774623#1 -1051035540#2 -1051035541 -767516508#1 -767516508#0 -767516511 767516519#0 767516519#1 767516523#4 767516523#5 767516523#6 767516523#7 767516523#0 767516522#0 767516522#1 1016166670#0 1016166670#1 146973200#0 146973200#1 146973200#2 146973200#3 146973200#4 146973200#5 891480514 203971377#0 203971377#1 700272077 582810642#0 582810642#1 582810642#2 582810642#3"/>
    </vehicle>
    <vehicle id="86" depart="129.00">
        <route edges="146973201#0 146973201#1 146973201#2 146973201#3 146973220#0 146973220#1 1042026729 767516515#0 767516515#1 767516523#0 767516523#1 767516523#2 767516523#3 767516523#4 767516518#0 767516518#1 767516512 865774623#0 865774623#1 -1051035540#2 -1051035541 -767516508#1 -767516508#0 -767516511 767516519#0 767516519#1"/>
    </vehicle>
    <vehicle id="88" depart="132.00">
        <route edges="-146973200#3 -146973200#2 -146973200#1 -146973200#0 -1016166670#1 -1016166670#0 865774625 767516521#0 767516521#1 767516523#2 767516523#3 767516523#4 767516523#5 767516523#6 767516523#7 767516523#0 767516522#0 767516522#1 1016166670#0 1016166670#1 146973200#0 146973200#1 146973200#2"/>
    </vehicle>
    <vehicle id="89" depart="133.50">
        <route edges="1051035543#0 1051035540#0 -1051035542 -767516508#2 -767516508#1 -767516508#0 -767516511 767516519#0 767516519#1 767516523#4 767516523#5 767516523#6 767516523#7 767516523#0 767516522#0 767516522#1 1016166670#0 1016166670#1 146973201#0 146973201#1 146973201#2"/>
    </vehicle>
    <vehicle id="90" depart="135.00">
        <route edges="767516515#1 767516523#0 767516523#1 767516523#2 767516523#3 767516523#4 767516518#0 767516518#1 767516512 865774623#0 865774623#1 -1051035540#2 -1051035541 -767516508#1 -767516508#0 767516509#0 767516509#1"/>
    </vehicle>
    <vehicle id="92" depart="138.00">
        <route edges="1051035540#2 -865774623#1 -865774623#0 -767516512 767516517#0 767516517#1 767516523#6 767516523#7 767516523#0 767516522#0 767516522#1 1016166670#0"/>
    </vehicle>
    <vehicle id="93" depart="139.50">
        <route edges="767516523#4 767516518#0 767516518#1 767516512 865774623#0 865774623#1 -1051035540#2 -1051035541 -767516508#1"/>
    </vehicle>
    <vehicle id="94" depart="141.00">
        <route edges="-203971377#0 -891480514 -146973200#5 -146973200#4 -146973200#3 -146973200#2 -146973200#1 -146973200#0 -1016166670#1 -1016166670#0 865774625 767516521#0 767516521#1 767516523#2 767516523#3 767516523#4 767516523#5 767516523#6 767516523#7 767516523#0 767516522#0 767516522#1 1016166670#0 1016166670#1 146973200#0 146973200#1 146973200#2 146973200#3 146973200#4 146973200#5"/>
    </vehicle>
    <vehicle id="95" depart="142.50">
        <route edges="1051035543#0 1051035543#1 -767516508#5"/>
    </vehicle>
    <vehicle id="96" depart="144.00">
        <route edges="-700272077 -203971377#1 -203971377#0 -891480514 -146973200#5 -146973200#4 -146973200#3 -146973200#2 -146973200#1 -146973200#0 -1016166670#1 -1016166670#0 865774625 767516521#0 767516521#1 767516523#2 767516523#3 767516523#4 767516518#0 767516518#1 767516512 865774623#0"/>
    </vehicle>
    <vehicle id="99" depart="148.50">
        <route edges="905401682#2 -767516508#6 -767516508#5 -767516508#4 -767516508#3 -767516508#2 -767516508#1 -767516508#0 -767516511 767516519#0 767516519#1 767516523#4 767516523#5 767516523#6 767516523#7 767516523#0 767516523#1"/>
    </vehicle>
    <vehicle id="100" depart="150.00">
        <route edges="865774625 767516521#0 767516521#1 767516523#2 767516523#3 767516523#4 767516518#0 767516518#1 767516512 865774623#0 865774623#1"/>
    </vehicle>
    <vehicle id="103" depart="154.50">
        <route edges="1051035540#2 -865774623#1 -865774623#0 -767516512 767516517#0 767516517#1 767516523#6 767516523#7 767516523#0 767516523#1 767516523#2 767516523#3 767516523#4 767516518#0 767516518#1 767516512 865774623#0 865774623#1 -1051035540#2 -1051035540#1 -1051035542"/>
    </vehicle>
    <vehicle id="104" depart="156.00">
        <route edges="1051035539 1051035543#0 1051035543#1 -767516508#5 865774620#0 865774620#1 865774620#2 865774620#3 865774620#4 905401682#0"/>
    </vehicle>
    <vehicle id="105" depart="157.50">
        <route edges="-767516508#1 -767516508#0 -767516511 767516519#0 767516519#1"/>
    </vehicle>
    <vehicle id="109" depart="163.50">
        <route edges="-146973220#1 -146973220#0 -146973201#3 -146973201#2 -146973201#1 -146973201#0 -1016166670#1 -1016166670#0 865774625 767516521#0 767516521#1 767516523#2 767516523#3 767516523#4 767516518#0 767516518#1 767516512 865774623#0 865774623#1 -1051035540#2 -1051035541 -767516508#1 -767516508#0 -767516511"/>
    </vehicle>
    <vehicle id="110" depart="165.00">
        <route edges="865774625 767516521#0 767516521#1 767516523#2 767516523#3 767516523#4 767516523#5 767516523#6 767516523#7 767516523#0 767516522#0 767516522#1 1016166670#0 1016166670#1 146973200#0 146973200#1 146973200#2 146973200#3 146973200#4 146973200#5 891480514 203971377#0 203971377#1 700272077 582810642#0 582810642#1 582810642#2 582810642#3 582810642#4"/>
    </vehicle>
    <vehicle id="112" depart="168.00">
        <route edges="-1051035542 -767516508#2 -767516508#1 -767516508#0 -767516511 767516519#0 767516519#1 767516523#4 767516523#5 767516523#6 767516523#7 767516523#0 767516522#0 767516522#1 1016166670#0 1016166670#1 146973200#0 146973200#1 146973200#2 146973200#3 146973200#4 146973200#5 891480514 203971377#0 203971377#1 700272077 582810642#0 582810642#1 582810642#2 582810642#3 582810642#4 700272076#0"/>
    </vehicle>
    <vehicle id="113" depart="169.50">
        <route edges="146973220#0 146973220#1 1042026729 767516515#0 767516515#1 767516523#0 767516523#1 767516523#2 767516523#3"/>
    </vehicle>
    <vehicle id="114" depart="171.00">
        <route edges="-146973220#1 -146973220#0 -146973201#3 -146973201#2 -146973201#1 -146973201#0 -1016166670#1 -1016166670#0 865774625 865774624#0 865774624#1 865774624#2"/>
    </vehicle>
    <vehicle id="117" depart="175.50">
        <route edges="-582810642#3 -582810642#2 -582810642#1 -582810642#0 -700272077 -203971377#1 -203971377#0 -891480514 -146973200#5 -146973200#4 -146973200#3 -146973200#2 -146973200#1 -146973200#0 -1016166670#1 -1016166670#0 865774625 767516521#0 767516521#1 767516523#2 767516523#3 767516523#4 767516523#5 767516523#6 767516516#0 767516516#1 -1042026729 -146973220#1 -146973220#0 -146973201#3 -146973201#2 -146973201#1 -146973201#0"/>
    </vehicle>
    <vehicle id="118" depart="177.00">
        <route edges="858961720 -582810642#4 -582810642#3 -582810642#2 -582810642#1 -582810642#0 -700272077 -203971377#1 -203971377#0 -891480514 -146973200#5 -146973200#4 -146973200#3 -146973200#2 -146973200#1 -146973200#0 -1016166670#1 -1016166670#0 865774625 767516521#0 767516521#1 767516523#2 767516523#3 767516523#4 767516518#0 767516518#1 767516512 865774623#0 865774623#1 -1051035540#2 -1051035541 -767516508#1 -767516508#0"/>
    </vehicle>
    <vehicle id="120" depart="180.00">
        <route edges="1051035543#0 1051035540#0 -1051035542 -767516508#2 -767516508#1 -767516508#0 -767516511 767516519#0 767516519#1 767516523#4 767516523#5 767516523#6 767516523#7 767516523#0 767516522#0 767516522#1 1016166670#0 1016166670#1 146973200#0 146973200#1 146973200#2 146973200#3 146973200#4 146973200#5 891480514 203971377#0 203971377#1 700272077 582810642#0 582810642#1 582810642#2 582810642#3 582810642#4 700272076#0"/>
    </vehicle>
    <vehicle id="122" depart="183.00">
        <route edges="-39704293#0 -203971377#1 -203971377#0 -891480514 -146973200#5 -146973200#4 -146973200#3 -146973200#2 -146973200#1 -146973200#0 -1016166670#1 -1016166670#0 865774625 767516521#0 767516521#1 767516523#2 767516523#3 767516523#4 767516518#0 767516518#1 767516512"/>
    </vehicle>
    <vehicle id="123" depart="184.50">
        <route edges="-582810642#3 -582810642#2 -582810642#1 -582810642#0 -700272077 -203971377#1 -203971377#0 -891480514 -146973200#5 -146973200#4 -146973200#3 -146973200#2 -146973200#1 -146973200#0 -1016166670#1 -1016166670#0 865774625 767516521#0 767516521#1 767516523#2 767516520#0 767516520#1 767516511 767516508#0 767516508#1 767516508#2 1051035542"/>
    </vehicle>
    <vehicle id="124" depart="186.00">
        <route edges="767516509#1 767516509#2 767516512 865774623#0 865774623#1 -1051035540#2 -1051035541 -767516508#1 -767516508#0 -767516511"/>
    </vehicle>
    <vehicle id="125" depart="187.50">
        <route edges="-767516512 767516517#0"/>
    </vehicle>
    <vehicle id="126" depart="189.00">
        <route edges="-1051035543#1 1051035540#0 -1051035542 -767516508#2 -767516508#1 -767516508#0 -767516511 767516519#0 767516519#1 767516523#4 767516523#5 767516523#6 767516523#7 767516523#0 767516522#0 767516522#1 1016166670#0 1016166670#1 146973201#0"/>
    </vehicle>
    <vehicle id="127" depart="190.50">
        <route edges="905401682#2"/>
    </vehicle>
    <vehicle id="129" depart="193.50">
        <route edges="-767516508#1 -767516508#0 767516509#0 767516509#1 767516509#2 767516512 865774623#0 865774623#1 865774623#2"/>
    </vehicle>
    <vehicle id="130" depart="195.00">
        <route edges="767516523#7"/>
    </vehicle>
    <vehicle id="133" depart="199.50">
        <route edges="767516508#0 767516508#1 767516508#2 767516508#3 767516508#4 865774620#0 865774620#1 865774620#2 865774620#3 865774620#4 905401682#0 905401682#1"/>
    </vehicle>
    <vehicle id="135" depart="202.50">
        <route edges="767516522#0 767516522#1 1016166670#0 1016166670#1 146973201#0 146973201#1 146973201#2 146973201#3 146973220#0 146973220#1 1042026729 767516515#0 767516515#1 767516523#0 767516523#1 767516523#2 767516523#3 767516523#4 767516518#0 767516518#1 767516512 865774623#0 865774623#1 -1051035540#2 -1051035541 -767516508#1 -767516508#0 -767516511"/>
    </vehicle>
    <vehicle id="138" depart="207.00">