<routes >
    <vType color="red" id="default_005" vClass="passenger"/>
    <vType color="blue" id="random_005" vClass="passenger"/>
    <vehicle arrivalPos="11.85" arrivalSpeed="0.00" depart="25820.00" departPos="11.85" id="h13208c1:1" type="default_005">
        <routeDistribution last="0">
            <route cost="3.94" edges="-25640145#2" probability="1.00000000"/>
        </routeDistribution>
    </vehicle>
    <vehicle arrivalPos="123.13" arrivalSpeed="0.00" depart="25822.00" departPos="51.41" id="h9093c1:1" type="default_005">
        <routeDistribution last="0">
            <route cost="463.37" edges="-25640148#0 92026769#12 -25640150 -30482638#3 -30482638#2 -201926266 -90587320 -37480109 -90587323 -10425611#1 -10425611#0 -10425611#0.35 -164051429#1 -164051429#0 -161678034#2 -161678034#2.33 -161678034#2.50 -161678034#1 -161678034#0 28119593 -24983010#2 -24983010#0 26973015 -145069303#4 -145069303#3 -145069303#1 -145069303#0 -32009683#1 -24972185#9 -24972185#8 -24972185#8.373 -24972185#1 -32978638#3 -32978638#0 32021112#0 168702040#1 168702040#2 168702040#3 168702040#4 -315358253#3 -315358253#2 -315358253#1 -315358253#0 -315358248#1 -315358245 -202092675.36 -4942389#1 -4942389#0 -136436466 -315358251#1 -315358251#0 -315358242#2 -315358242#1 -315358242#0 -129379925 -129379918#1 -315358252#1" probability="0.46197869"/>
            <route cost="470.39" edges="-25640148#0 92026769#12 -25640150 -30482638#3 -30482638#2 -201926266 -90587320 -37480109 -90587323 -10425611#1 -10425611#0 -10425611#0.35 -164051429#1 -164051429#0 -161678034#2 -161678034#2.33 -161678034#2.50 -161678034#1 -161678034#0 28119593 -24983010#2 -24983010#0 26973015 -145069303#4 -145069303#3 -145069303#1 -145069303#0 -32009683#1 24537982#0 24537982#2 24537982#3 24537982#4 266565302 380273343 29238186 140684000#0 140684000#1 203127020#0 200741048 248012814 29119850 29119850.70 30399662#0 30399662#1 54169280#0 54169280#1 54169280#2 54169280#3 54169280#4 54169280#6 386687232#0 -315358251#1 -315358251#0 -315358242#2 -315358242#1 -315358242#0 -129379925 -129379918#1 -315358252#1" probability="0.21632358"/>
            <route cost="561.97" edges="-25640148#0 92026769#12 -25640150 -30482638#3 -30482638#2 -201926266 -90587320 -37480109 -203971378#1 -25192758 90587321#0 203971379#1 -54154922#1 -54154922#0 -24977473#2 164051410#0 164051410#1 32199969#0 32199969#2 32199969#5 32199989#0 32199989#1 323248156#0 266567301#1 64464420 25955089 64464430 32009826#0 32009826#1 31342305 30404124 266567307#0 233673425#0 233673425#1 29238186 140684000#0 140684000#1 203127020#0 200741048 248012814 29119850 29119850.70 30399662#0 30399662#1 54169280#0 54169280#1 54169280#2 54169280#3 54169280#4 54169280#6 386687232#0 -315358251#1 -315358251#0 -315358242#2 -315358242#1 -315358242#0 -129379925 -129379918#1 -315358252#1" probability="0.15421893"/>
            <route cost="474.71" edges="-25640148#0 92026769#12 -25640150 -30482638#3 -30482638#2 -201926266 -90587320 -37480109 -90587323 -10425611#1 -10425611#0 -10425611#0.35 -164051429#1 -164051429#0 -161678034#2 -161678034#2.33 -161678034#2.50 -161678034#1 -161678034#0 28119593 -24983010#2 -24983010#0 26973015 -145069303#4 -145069303#3 -145069303#1 -145069303#0 -32009683#1 -24972185#9 -24972185#8 -24972185#8.373 -24972185#1 -32978638#3 -32978638#0 32021112#0 168702040#1 168702040#2 -24608846#1 -24608846#0 -160314345#5 -315358245 -202092675.36 -4942389#1 -4942389#0 -136436466 -315358251#1 -315358251#0 -315358242#2 -315358242#1 -315358242#0 -129379925 -129379918#1 -315358252#1" probability="0.16555176"/>
            <route cost="655.09" edges="-25640148#0 92026769#12 -25640150 30482638#4 -153692837#5 -153692837#4 -153692837#3 -153692837#2 -153692837#1 -153692837#0 -202070429#4 -202070429#3 -202070429#2 -202070429#1 -202070429#0 151167728 257907859#0 257907859#1 257907860#0 257907860#1.168 305390325#0 305390325#3 266567304#0 266567301#1 64464420 25955089 64464430 32009826#0 32009826#1 31342305 30404124 266567307#0 233673425#0 233673425#1 29238186 140684000#0 140684000#1 203127020#0 200741048 248012814 29119850 29119850.70 30399662#0 30399662#1 54169280#0 54169280#1 54169280#2 54169280#3 54169280#4 54169280#6 386687232#0 -315358251#1 -315358251#0 -315358242#2 -315358242#1 -315358242#0 -129379925 -129379918#1 -315358252#1" probability="0.00192703"/>
        </routeDistribution>
    </vehicle>
    <vehicle arrivalPos="33.10" arrivalSpeed="0.00" depart="25825.00" departPos="56.83" id="h719c1:1" type="default_005">
        <routeDistribution last="2">
            <route cost="616.54" edges="32020916#0 77912233 32200416 29027840 77912237 32200414#0 29027839#0 29027839#2 31343367#0 29048562#0 145069303#0 145069303#1 145069303#2 145069303#4 -26973015 24983010#0 24983010#1 161678033#0 -32350852#4 -32350852#3 -32350852#1 -28418764#2 -28418764#1 -28418764#0.88 -28418764#0.109 -542617943 -389831364 -102818928#1 -102818928#0 -102818928#0.78 -61940355 -24495188 -29458641 -61940356 29458640#0 172517196 -38508400#1 -174609517#3 -33814393#3 -33814393#1 -33814393#0 -391208988 -40623117#2 -51244813#8 -51244813#7 -51244813#6 -51244813#5 -51244813#5.55 -51244813#3 -51244813#0 -26341775#7 -26341775#6 -26341775#5 -26341775#3 -26341775#1 -26341775#0 -26341775#0.81 -51244816 -26352160#1 -26334894#0 -26341401#2 -26341401#1 -26341401#0" probability="0.04477181"/>
            <route cost="592.52" edges="32020916#0 -105482066 104236369 145069323#0 32230349#0 145069347#0 103512671 -33102477 -204388144#1 -204388144#0 -137685135 -51856496#7 -51856496#5 -51856496#4 -51856496#3 -51856496#2 -51856496#1 -51856496#0 -390282481 -156923526#3 -156923526#2 -10425610#2 -102818928#1 -102818928#0 -102818928#0.78 -61940355 -24495188 -29458641 -61940356 29458640#0 172517196 -38508400#1 -174609517#3 -33814393#3 -33814393#1 -33814393#0 -391208988 -40623117#2 -51244813#8 -51244813#7 -51244813#6 -51244813#5 -51244813#5.55 -51244813#3 -51244813#0 -26341775#7 -26341775#6 -26341775#5 -26341775#3 -26341775#1 -26341775#0 -26341775#0.81 -51244816 -26352160#1 -26334894#0 -26341401#2 -26341401#1 -26341401#0" probability="0.06260924"/>
            <route cost="630.68" edges="32020916#0 77912233 32200416 29027840 77912237 32200414#0 29027839#0 29027839#2 31343367#0 29048562#0 145069303#0 145069303#1 145069303#2 145069303#4 -26973015 24983010#0 24983010#1 161678033#0 -32350852#4 -32350852#3 -32350852#1 -28418764#2 -28418764#1 -28418764#0.88 -28418764#0.109 32225921 32124561#1 32124561#3 32124561#4 233673423 28418763 -379723624#1 -379723624#0 -32923867#4 -32923867#3 -32923867#2 -32923867#1 -32923867#0 130996520 130996520.58 172519650 306396705 -33779209#2 gneE19 -174609517#3 -33814393#3 -33814393#1 -33814393#0 -391208988 -40623117#2 -51244813#8 -51244813#7 -51244813#6 -51244813#5 -51244813#5.55 -51244813#3 -51244813#0 -26341775#7 -26341775#6 -26341775#5 -26341775#3 -26341775#1 -26341775#0 -26341775#0.81 -51244816 -26352160#1 -26334894#0 -26341401#2 -26341401#1 -26341401#0" probability="0.38138947"/>
            <route cost="674.96" edges="32020916#0 -105482066 104236369 145069323#0 32230349#0 145069347#0 103512671 -33102477 -204388144#1 -204388144#0 -137685135 -51856496#7 -51856496#5 -51856496#4 -51856496#3 -51856496#2 -51856496#1 -51856496#0 -390282481 -156923526#3 -156923526#2 -10425610#2 389831364 32124561#0 32124561#1 32124561#3 32124561#4 233673423 28418763 -379723624#1 -379723624#0 -32923867#4 -32923867#3 -32923867#2 -32923867#1 -32923867#0 130996520 130996520.58 172519650 306396705 -33779209#2 gneE19 -26334127#7 -26334127#4 -26334127#3 26334133#0 24733323#4 24733323#5 -51244813#3 -51244813#0 -26341775#7 -26341775#6 -26341775#5 -26341775#3 -26341775#1 -26341775#0 -26341775#0.81 -51244816 -26352160#1 -26334894#0 -26341401#2 -26341401#1 -26341401#0" probability="0.15201582"/>
            <route cost="621.40" edges="32020916#0 -105482066 104236369 145069323#0 32230349#0 25122830#0 -32061928#1 18909063#0 18909063#1 -36689751#2 10425609#0 10425609#1 201956819#0 201956820 -29497467 -201969576#7 -201969576#6 -201969576#5 -201969576#4 -201969576#1 -201969576#0 -61940355 -24495188 -29458641 -61940356 29458640#0 172517196 -38508400#1 -174609517#3 -33814393#3 -33814393#1 -33814393#0 -391208988 -40623117#2 -51244813#8 -51244813#7 -51244813#6 -51244813#5 -51244813#5.55 -51244813#3 -51244813#0 -26341775#7 -26341775#6 -26341775#5 -26341775#3 -26341775#1 -26341775#0 -26341775#0.81 -51244816 -26352160#1 -26334894#0 -26341401#2 -26341401#1 -26341401#0" probability="0.35921371"/>
        </routeDistribution>
    </vehicle>
    <vehicle arrivalPos="25.00" arrivalSpeed="0.00" depart="25828.00" departPos="82.57" id="h816c2:1" type="default_005">
        <routeDistribution last="0">
            <route cost="1729.50" edges="52572753#2 29119898 145069362#0 107677354#1 77670297#0 77670297#1 32020916#0 77912233 32200416 29027840 77912237 32200414#0 29027839#0 29027839#2 31343367#0 29048562#0 11014139#0 24991573 24991571 64464405 266567306 64464408 64464384#1 32009827 266567303 266567294#0 31342064#1 31342064#1.83 305495773#0 266507551 266507552#0 31021475 202070430 202070429#0 202070429#1 202070429#2 202070429#3 202070429#4 28132836#0 -175761127#15 -175761127#14 -175761127#13 -175761127#11 -175761127#9 -175761127#7 -175761127#1 -36291830 30320943 23622426 -195073412#2 -195073412#1 -195073412#0 195073415 266507536 27550700 27454737 266507535 32930761 146973160 266885714 146973156#0 450076615#0 161680739 27453586#0 gneE119" probability="0.23453470"/>
            <route cost="1376.93" edges="52572753#2 29119898 145069362#0 107677354#1 77670297#0 77670297#1 32020916#0 77912233 32200416 29027840 77912237 32200414#0 29027839#0 29027839#2 31343367#0 29048562#0 11014139#0 24991573 24991571 64464405 266567306 64464408 64464384#1 32009827 266567303 266567294#0 31342064#1 31342064#1.83 305495773#0 266507551 266507552#0 27202149 202070427#0 202070427#1 202070427#2 33280103#0 33280103#1 33280103#2 33280103#3 33280103#4 33280103#4.68 391208990 391029009#0 391029009#0.69 391029009#1 391029009#1.157 41425835 41425835.214 41425835.236 151167747 151167747.23 549032836 39704924 39704922 266507540 27392720 27392724 266507546 266507536 27550700 27454737 266507535 32930761 146973160 266885714 146973156#0 450076615#0 161680739 27453586#0 gneE119" probability="0.22361454"/>
            <route cost="1747.73" edges="52572753#2 29119898 145069362#0 107677354#1 77670297#0 77670297#1 32020916#0 77912233 32200416 29027840 77912237 32200414#0 29027839#0 29027839#2 31343367#0 29048562#0 11014139#0 24991573 24991571 64464405 266567306 64464408 64464384#1 32009827 266567303 266567294#0 31342064#1 31342064#1.83 305495773#0 266507551 266507552#0 31021475 202070430 202070429#0 202070429#1 202070429#2 202070429#3 202070429#4 202070429#5 -28132813 -175761127#11 -175761127#9 -175761127#7 -175761127#1 -26180725#2 28132852 549032836 39704924 39704922 266507540 27392720 27392724 266507546 266507536 27550700 27454737 266507535 32930761 146973160 266885714 146973156#0 450076615#0 161680739 27453586#0 gneE119" probability="0.19847126"/>
            <route cost="1782.09" edges="52572753#2 -32924041#3 -108310252 -108310253 -29458096 -51856495#2 -29458097#2 24972185#0 24972185#2 24972185#2.111 24972185#9 29048562#0 11014139#0 24991573 24991571 64464405 266567306 64464408 64464384#1 32009827 266567303 266567294#0 31342064#1 31342064#1.83 305495773#0 266507551 266507552#0 31021475 202070430 202070429#0 202070429#1 202070429#2 202070429#3 202070429#4 202070429#5 202070429#6 202070429#7 201789794#0 201789794#3 308849647 266507550 30320943 23622426 -195073412#2 -195073412#1 -195073412#0 195073415 266507536 27550700 27454737 266507535 32930761 146973160 266885714 146973156#0 450076615#0 161680739 27453586#0 gneE119" probability="0.17699523"/>
            <route cost="1777.35" edges="52572753#2 29119898 145069362#0 107677354#1 77670297#0 77670297#1 32020916#0 77912233 32200416 29027840 77912237 32200414#0 29027839#0 29027839#2 31343367#0 24537982#0 24537982#2 24537982#3 24537982#4 266565302 380273343 -233673425#1 -233673425#0 -266567307#1 -30404124 30417892 266567308#0 64464384#1 32009827 266567303 266567294#0 31342064#1 31342064#1.83 305495773#0 266507551 266507552#0 31021475 202070430 202070429#0 202070429#1 202070429#2 202070429#3 202070429#4 202070429#5 202070429#6 202070429#7 201789794#0 201789794#3 308849647 266507550 30320943 23622426 -195073412#2 -195073412#1 -195073412#0 195073415 266507536 27550700 27454737 266507535 32930761 146973160 266885714 146973156#0 450076615#0 161680739 27453586#0 gneE119" probability="0.16638427"/>
        </routeDistribution>
    </vehicle>
    <vehicle arrivalPos="0.00" arrivalSpeed="0.00" depart="25839.00" departPos="0.91" id="h13330c2:1" type="default_005">
        <routeDistribution last="3">
            <route cost="100515.17" edges="-32350901#1 92026769#1 92026769#2 92026769#3 92026769#4 92026769#6 92026769#12 -25640150 -30482638#3 -25595895#1 -25595895#0 -25596855#3 -25596861#2 -25596861#1 -25596861#0 -202070429#1 -202070429#0 151167728 26451152#0 202070427#0 202070427#1 202070427#2 33280103#0 33280103#1 33280103#2 33280103#3 33280103#4 33280103#4.68 97304242#0 97304242#2 97304242#4 97304242#5 97304242#6 97304242#7 97304242#8 97304242#9 97304242#10 97304242#12 -31021477#2 -27196044#8 -27196044#5 -27196044#3 -27196044#2 -27196044#1 -342059250#1 -25705904#1" probability="0.20272436"/>
            <route cost="100526.03" edges="-32350901#1 92026769#1 92026769#2 92026769#3 -25640375#3 -25640375#2 -25640375#0 -25640157#0 -30482638#10 -30482638#9 -153692837#5 -153692837#4 -153692837#3 -153692837#2 -153692837#1 -153692837#0 -202070429#4 -202070429#3 -202070429#2 -202070429#1 -202070429#0 151167728 26451152#0 202070427#0 202070427#1 202070427#2 33280103#0 33280103#1 33280103#2 33280103#3 33280103#4 33280103#4.68 97304242#0 97304242#2 97304242#4 97304242#5 97304242#6 97304242#7 97304242#8 97304242#9 97304242#10 97304242#12 -31021477#2 -27196044#8 -27196044#5 -27196044#3 -27196044#2 -27196044#1 -342059250#1 -25705904#1" probability="0.20018172"/>
            <route cost="100509.14" edges="-32350901#1 92026769#1 92026769#2 92026769#3 -25640375#3 -25640375#2 -25640375#0 -25640157#0 -30482638#10 -30482638#9 -153692837#5 -153692837#4 -153692837#3 -153692837#2 -153692837#1 25640093#4 -25596861#0 -202070429#1 -202070429#0 151167728 26451152#0 202070427#0 202070427#1 202070427#2 33280103#0 33280103#1 33280103#2 33280103#3 33280103#4 33280103#4.68 97304242#0 97304242#2 97304242#4 97304242#5 97304242#6 97304242#7 97304242#8 97304242#9 97304242#10 97304242#12 -31021477#2 -27196044#8 -27196044#5 -27196044#3 -27196044#2 -27196044#1 -342059250#1 -25705904#1" probability="0.20017339"/>
            <route cost="100520.28" edges="-32350901#1 92026769#1 92026769#2 92026769#3 -25640375#3 -25640375#2 -25640375#0 -25640157#0 -30482638#10 -30482638#9 -153692837#5 -153692837#4 -153692837#3 -153692837#2 25596855#1 -25596861#2 -25596861#1 -25596861#0 -202070429#1 -202070429#0 151167728 26451152#0 202070427#0 202070427#1 202070427#2 33280103#0 33280103#1 33280103#2 33280103#3 33280103#4 33280103#4.68 97304242#0 97304242#2 97304242#4 97304242#5 97304242#6 97304242#7 97304242#8 97304242#9 97304242#10 97304242#12 -31021477#2 -27196044#8 -27196044#5 -27196044#3 -27196044#2 -27196044#1 -342059250#1 -25705904#1" probability="0.20000723"/>
            <route cost="101085.72" edges="-32350901#1 -92026769#0 -25895947#1 -25895947#0 -202070435#1 10941820 201880159#0 201880159#1 201880159#2 201789796#0.31 201789796#1 30320943 378466167 266507548 257907861 151167740 266507555 266507554 266507557#0 266507557#1 4058127#1 25623125#0 25623125#2 25794504#0 25794504#2 39861704#2 -45378204#1 -45378204#0 25638614 -32203959#5 -32203959#4 -32203959#3 -32203959#2 -32203959#1 -25623139 25638761#2 25638761#3 -27196044#8 -27196044#5 -27196044#3 -27196044#2 -27196044#1 -342059250#1 -25705904#1" probability="0.19691331"/>
        </routeDistribution>
    </vehicle>
    <vehicle arrivalPos="230.00" arrivalSpeed="0.00" depart="25847.00" departPos="0.33" id="h20556c2:1" type="default_005">
        <routeDistribution last="1">
            <route cost="656.09" edges="200946853 54033673#0 54033673#0.28 54033673#2 54033673#3 29458645 29458645.65 29458645.81 37282738 103718186 37282688#2 37282688#4 37282688#5 23184252#0 23184252#1 201926265#0 201926265#1 201926265#2 201926265#3 201926265#4 201926265#5 201278209#0 201278209#2 -20405619 -57827563#0 20266195#0 20266195#2 20266195#4 -439871826 -22603932#1 -22603932#0 22603934#0 gneE120 gneE124 41567676#0 41567676#1 55600046#0 305495779#1 22603944#0 22603945#0 22603945#1.135 22603945#1.145 55600044#0 55600044#1 55600044#2 61671904 -51872706 -51872707 -28124854#0 -51872703 -32881185#1 41494424#0 233673422#0 233673422#2 233673422#4 233673422#5 233673422#7 233673422#9" probability="0.21343342"/>
            <route cost="644.84" edges="200946853 54033673#0 54033673#0.28 54033673#2 54033673#3 29458645 29458645.65 29458645.81 37282738 103718186 20975950#0 20975950#1 -20975942#2 -20975942#1 20975954#0 20975954#1 28269810#4 30482619 -205182378#7 -205182378#6 -205182378#5 -205182378#4 -205182378#3 -205182378#2 -205182378#0 -32530108#5 -32530108#2 -32530108#1 -390842192#4 -390842192#3 -390842192#1 -141058755#4 -141058755#1 -141058755#0 -51262567#1 22603944#0 22603945#0 22603945#1.135 22603945#1.145 55600044#0 55600044#1 55600044#2 61671904 -51872706 -51872707 -28124854#0 -51872703 -32881185#1 41494424#0 233673422#0 233673422#2 233673422#4 233673422#5 233673422#7 233673422#9" probability="0.20587401"/>
            <route cost="644.25" edges="200946853 54033673#0 54033673#0.28 54033673#2 54033673#3 29458645 29458645.65 29458645.81 37282738 103718186 20975950#0 20975950#1 -20975942#2 20975952#0 20975952#1 20975952#2 -28269810#1 -163586462 -4819338#4 -4819338#3 -4819338#1 -4819338#0 266607803#0 266607803#1 266607803#2 266607792#0 266607792#5 200949176#0 200949176#1 116765451#0 116765451#3 390835794#0 390835794#1 266607799 168249926#0 168249926#1 -207091116#1 25375417#0 25375417#6 25375417#7 25375417#8 25375417#9 25375417#10 25375417#11 25375417#12 -25375814#1 233673410#6 266607801#0 266607801#1 266607802#0 266607802#1 266607795#0 266607795#1 266607795#6 266607800#0 201243226#0 266607805#0 266607805#1 41494424#0 233673422#0 233673422#2 233673422#4 233673422#5 233673422#7 233673422#9" probability="0.19849902"/>
            <route cost="651.84" edges="200946853 54033673#0 54033673#0.28 54033673#2 54033673#3 29458645 29458645.65 29458645.81 37282738 103718186 37282688#2 37282688#4 37282688#5 -205182378#15 -205182378#14 -205182378#13 -205182378#12 -205182378#11 -205182378#9 -205182378#7 -205182378#6 -205182378#5 -205182378#4 -205182378#3 -205182378#2 -205182378#0 -32530108#5 -32530108#2 -32530108#1 -390842192#4 -390842192#3 -390842192#1 -141058755#4 -141058755#1 -141058755#0 -51262567#1 22603944#0 22603945#0 22603945#1.135 22603945#1.145 55600044#0 55600044#1 55600044#2 61671904 -51872706 -51872707 -28124854#0 -51872703 -32881185#1 41494424#0 233673422#0 233673422#2 233673422#4 233673422#5 233673422#7 233673422#9" probability="0.19421897"/>
            <route cost="653.99" edges="200946853 54033673#0 54033673#0.28 54033673#2 54033673#3 29458645 29458645.65 29458645.81 37282738 103718186 20975950#0 20975950#1 -20975942#2 20975952#0 20975952#1 20975952#2 -28269810#1 -163586462 -4819338#4 -4819338#3 -4819338#1 -4819338#0 266607803#0 266607803#1 266607803#2 266607792#0 266607792#5 200949176#0 200949176#1 116765451#0 116765451#3 390835794#0 390835794#1 266607799 168249926#0 168249926#1 29027936#0 29027936#1 233673413#0 233673413#1 207091130 207091132#0 207091132#1 207091132#2 207091132#3 207091132#4 266607796 266607798 233673420#0 233673420#1 201243230#0 201243230#1 233673410#0 233673410#1 233673410#5 233673410#6 266607801#0 266607801#1 266607802#0 266607802#1 266607795#0 266607795#1 266607795#6 266607800#0 201243226#0 266607805#0 266607805#1 41494424#0 233673422#0 233673422#2 233673422#4 233673422#5 233673422#7 233673422#9" probability="0.18797457"/>
        </routeDistribution>
    </vehicle>
    <vehicle arrivalPos="72.09" arrivalSpeed="0.00" depart="25851.00" departPos="72.09" id="h2902c1:1" type="default_005">
        <routeDistribution last="0">
            <route cost="62.03" edges="204588664#0" probability="1.00000000"/>
        </routeDistribution>
    </vehicle>
    <vehicle arrivalPos="142.26" arrivalSpeed="0.00" depart="25854.00" departPos="142.26" id="h12572c1:1" type="default_005">
        <routeDistribution last="0">
            <route cost="27.68" edges="261448661" probability="1.00000000"/>
        </routeDistribution>
    </vehicle>
    <vehicle arrivalPos="0.00" arrivalSpeed="0.00" depart="25856.00" departPos="34.34" id="h9987c1:1" type="default_005">
        <routeDistribution last="2">
            <route cost="100655.71" edges="-137463478#2 -137463478#1 -137463478#0 25796398#0 305390325#0 305390325#3 266567304#0 266567301#1 64464420 25955089 64464430 32009826#0 32009826#1 31342305 30404124 266567307#0 233673425#0 233673425#1 24977590#0 24977590#1 266565299 266565295#0 266565295#1 266565295#2 266565295#3 266565295#4 266565295#5 32999435 32124637#0 32124637#1 168702040#1 168702040#2 168702040#3 168702040#4 168702039#0 168702039#1 32999434#0 201089423#0 201089423#2 32124744 32124743 285716192#0 285716192#0.83 201963535 104010354 -164051413 -653473569#5 -653473569#4 -653473569#2 -653473569#1 -653473569#0 -653473568#1 -653473568#0 -18813598#8 -18813598#7 -18813598#6 -18813598#1 18809673#0 18809673#7 18809673#9 18809673#12 18809673#13 392631301 379718294 164051417#0 107431496#0 107431496#2 107431496#4" probability="0.24651519"/>
            <route cost="100623.12" edges="-137463478#2 -137463478#1 -137463478#0 25796398#0 305390325#0 25797295#0 -201444272#0 30404130#0 30404130#1 64464420 25955089 64464430 32009826#0 32009826#1 31342305 30404124 266567307#0 233673425#0 233673425#1 24977590#0 24977590#1 266565299 266565295#0 266565295#1 266565295#2 266565295#3 266565295#4 266565295#5 32999435 32124637#0 32124637#1 168702040#1 168702040#2 168702040#3 168702040#4 168702039#0 168702039#1 32999434#0 201089423#0 201089423#2 32124744 32124743 285716192#0 285716192#0.83 201963535 -104010328 -25145012#6 -25145012#5 22716069#2 -653473569#1 -653473569#0 -653473568#1 -653473568#0 -18813598#8 -18813598#7 -18813598#6 -18813598#1 18809673#0 18809673#7 18809673#9 18809673#12 18809673#13 392631301 379718294 164051417#0 107431496#0 107431496#2 107431496#4" probability="0.19592346"/>
            <route cost="100623.16" edges="-137463478#2 -137463478#1 -137463478#0 25796398#0 305390325#0 25797295#0 -201444272#0 30404130#0 30404130#1 64464420 25955089 64464430 32009826#0 32009826#1 31342305 30404124 266567307#0 233673425#0 233673425#1 24977590#0 24977590#1 266565299 266565295#0 266565295#1 266565295#2 266565295#3 266565295#4 266565295#5 32999435 32124637#0 32124637#1 168702040#1 168702040#2 168702040#3 168702040#4 168702039#0 168702039#1 32999434#0 201089423#0 201089423#2 32124744 32124743 285716192#0 285716192#0.83 201963535 -104010328 -25145012#6 -25145011#0 -653473569#2 -653473569#1 -653473569#0 -653473568#1 -653473568#0 -18813598#8 -18813598#7 -18813598#6 -18813598#1 18809673#0 18809673#7 18809673#9 18809673#12 18809673#13 392631301 379718294 164051417#0 107431496#0 107431496#2 107431496#4" probability="0.19106566"/>
            <route cost="100627.09" edges="-137463478#2 -137463478#1 -137463478#0 25796398#0 305390325#0 25797295#0 -201444272#0 30404130#0 30404130#1 64464420 25955089 64464430 32009826#0 32009826#1 31342305 30404124 266567307#0 233673425#0 233673425#1 24977590#0 24977590#1 266565299 266565295#0 266565295#1 266565295#2 266565295#3 266565295#4 266565295#5 32999435 32124637#0 32124637#1 168702040#1 168702040#2 168702040#3 168702040#4 168702039#0 168702039#1 32999434#0 201089423#0 201089423#2 32124744 32124743 285716192#0 285716192#0.83 201963535 -104010328 -25145013#0 -653473569#4 -653473569#2 -653473569#1 -653473569#0 -653473568#1 -653473568#0 -18813598#8 -18813598#7 -18813598#6 -18813598#1 18809673#0 18809673#7 18809673#9 18809673#12 18809673#13 392631301 379718294 164051417#0 107431496#0 107431496#2 107431496#4" probability="0.18589933"/>
            <route cost="100625.90" edges="-137463478#2 -137463478#1 -137463478#0 25796398#0 305390325#0 25797295#0 -201444272#0 30404130#0 30404130#1 64464420 25955089 64464430 32009826#0 32009826#1 31342305 30404124 266567307#0 233673425#0 233673425#1 24977590#0 24977590#1 266565299 266565295#0 266565295#1 266565295#2 266565295#3 266565295#4 266565295#5 32999435 32124637#0 32124637#1 168702040#1 168702040#2 168702040#3 168702040#4 168702039#0 168702039#1 32999434#0 201089423#0 201089423#2 32124744 32124743 285716192#0 285716192#0.83 201963535 -104010328 -25145012#6 -25145012#5 -25145012#4 -25145012#3 -25145012#2 -25187895#1 -25187895#0 28111977#10 -653473568#0 -18813598#8 -18813598#7 -18813598#6 -18813598#1 18809673#0 18809673#7 18809673#9 18809673#12 18809673#13 392631301 379718294 164051417#0 107431496#0 107431496#2 107431496#4" probability="0.18059636"/>
        </routeDistribution>
    </vehicle>
    <vehicle arrivalPos="80.46" arrivalSpeed="0.00" depart="25856.00" departPos="94.88" id="h19305c1:3" type="default_005">
        <routeDistribution last="4">
            <route cost="871.61" edges="-148050447#0 -306431310#0 -148050448#0 266565295#2 266565295#3 266565295#4 266565295#5 32999435 32124637#0 32124637#1 168702040#1 168702040#2 168702040#3 168702040#4 -315358253#3 -315358253#2 -315358253#1 -315358253#0 -315358248#1 -315358245 -202092675.36 -4942389#1 -4942389#0 -136436466 386687242 23166741#0 23166741#2 23166741#5 201201953#0 201201953#2 201201953#4 201201953#10 201201953#12 176550246 201238729#1 201238729#2 201238729#3 201238729#5 201238729#6 138002148 128361091 379795371 378946906 449057059 449057052 109483352#0 109483352#1 -201238725#5 -201238725#3 27998676#0 148529632#0 148529632#1 148529632#2 148529632#3 148529632#4 29353676#0 29353676#1 29353676#2 -24754837#0 23622520#0 23622520#1 23622520#2 -23622056#11 -23622056#9 -23622056#6 -23622056#5 -23622056#4 -23622056#3 -307536275#11 -307536275#10 307536272#0 307536272#1 307536272#2" probability="0.27168858"/>
            <route cost="796.95" edges="-148050447#0 -306431310#0 -148050448#0 266565295#2 266565295#3 266565295#4 266565295#5 32999435 32124637#0 32124637#1 168702040#1 168702040#2 168702040#3 168702040#4 168702039#0 168702039#1 32999434#0 24693977#0 24693977#1 315392062#0 -160314346#1 -160314346#0 24634505 24634510#0 24634510#1 24634510#6 24634510#7 24634510#9 24634510#16 201238726#0 201238726#0.117 201238726#1 201238729#1 201238729#2 201238729#3 201238729#5 201238729#6 138002148 128361091 379795371 378946906 449057059 449057052 109483352#0 109483352#1 -201238725#5 -201238725#3 27998676#0 148529632#0 130185486#0 130185486#1 130185486#2 -24754837#3 -24754837#2 24754854#0 24754854#2 24754854#3 307536275#0 307536275#5 307536275#6 307536275#7 307536275#8 307536275#9 307536272#0 307536272#1 307536272#2" probability="0.24121889"/>
            <route cost="793.35" edges="-148050447#0 -306431310#0 -148050448#0 266565295#2 266565295#3 266565295#4 266565295#5 32999435 32124637#0 32124637#1 168702040#1 168702040#2 168702040#3 168702040#4 168702039#0 168702039#1 32999434#0 24693977#0 24693977#1 315392062#0 -160314346#1 -160314346#0 24634505 24634510#0 24634510#1 24634510#6 24634510#7 24634510#9 24634510#16 201238726#0 201238726#0.117 201238726#1 201238729#1 201238729#2 201238729#3 201238729#5 201238729#6 138002148 128361091 379795371 378946906 449057059 449057052 109483352#0 109483352#1 -201238725#5 -201238725#3 27998676#0 148529632#0 148529632#1 148529632#2 148529632#3 148529632#4 29353676#0 29353676#1 29353676#2 -24754837#0 23622520#0 23622520#1 23622520#2 -23622056#11 -23622056#9 -23622056#6 -23622056#5 -23622056#4 -23622056#3 -307536275#11 -307536275#10 307536272#0 307536272#1 307536272#2" probability="0.24292303"/>
            <route cost="879.30" edges="-148050447#0 -306431310#0 -148050448#0 266565295#2 266565295#3 25955175#0 24608842#0 24608842#1 -160314345#6 -160314345#5 -315358245 -202092675.36 -4942389#1 -4942389#0 -136436466 386687242 23166741#0 23166741#2 23166741#5 201201953#0 201201953#2 201201953#4 201201953#10 201201953#12 176550246 201238729#1 201238729#2 201238729#3 201238729#5 201238729#6 138002148 128361091 379795371 378946906 449057059 449057052 109483352#0 109483352#1 -201238725#5 -201238725#3 27998676#0 148529632#0 148529632#1 148529632#2 148529632#3 148529632#4 29353676#0 29353676#1 29353676#2 -24754837#0 23622520#0 23622520#1 23622520#2 -23622056#11 -23622056#9 -23622056#6 -23622056#5 -23622056#4 -23622056#3 -307536275#11 -307536275#10 307536272#0 307536272#1 307536272#2" probability="0.15815636"/>
            <route cost="860.59" edges="-148050447#0 -306431310#0 -148050448#0 266565295#2 266565295#3 266565295#4 266565295#5 32999435 32124637#0 32124637#1 168702040#1 168702040#2 168702040#3 168702040#4 168702039#0 168702039#1 32999434#0 24693977#0 24693977#1 315392062#0 -160314346#1 -160314346#0 24634505 24634510#0 24634510#1 24634510#6 24634510#7 24634510#9 24634510#16 -10427692#8 -10427692#7 -10427692#6 -10427692#5 -10427692#4 -10427692#3 -10427692#2 -10427692#1 -285549250#1 -128361102#1 23623674#0 23623674#11 27998675#1 27998676#0 148529632#0 148529632#1 148529632#2 148529632#3 148529632#4 29353676#0 29353676#1 29353676#2 -24754837#0 23622520#0 23622520#1 23622520#2 -23622056#11 -23622056#9 -23622056#6 -23622056#5 -23622056#4 -23622056#3 -307536275#11 -307536275#10 307536272#0 307536272#1 307536272#2" probability="0.08601316"/>
        </routeDistribution>
    </vehicle>
    <vehicle arrivalPos="79.55" arrivalSpeed="0.00" depart="25857.00" departPos="114.73" id="h3756c1:1" type="default_005">
        <routeDistribution last="4">