<routes >
    <vType color="red" id="default_016" vClass="passenger"/>
    <vType color="blue" id="random_016" vClass="passenger"/>
    <vehicle arrivalPos="13.53" arrivalSpeed="0.00" depart="56432.00" departPos="7.45" id="randUni19697:1" type="random_016">
        <routeDistribution last="0">
            <route cost="1103.58" edges="25136980#7 25136980#8 25136980#9 -25149251#1 -25149251#0 -173169611#3 -173169611#0 201956821#0 201956821#1.68 201956811#0 36689751#0 -18909063#2 -18909063#0 389831363#0 -25122830#2 29002239 35926319#0 35926319#1 32230724 77912233 32200416 29027840 77912237 32200414#0 29027839#0 29027839#2 31343367#0 29048562#0 11014139#0 24991573 24991571 64464405 266567306 64464408 64464384#1 32009827 266567303 266567294#0 31342064#1 31342064#1.83 25902677#0 137463478#0 137463478#1 137463478#2 137463478#3 29238188#0 29238188#1 29238188#3 152077572#0 152077572#2 152077572#2.79 54858974 4942408 54858973#0 54858973#0.62 54858973#1 54858973#2 29119849#0 29119849#1 29119850 29119850.70 30399326#0 -137246371#2 -137246371#1 -138002149#2 -138002149#1 -138002149#0 -25316932#4 -10425532#5 -447569998#1 -447569997#0 129379918#0 -40888351#6 -26677416#7 26677539 -201950250#1 -201950250#0 -26677214#5 -26677214#4 -26677214#3 -26677214#2 -26676668" probability="0.99953557"/>
            <route cost="18585.80" edges="25136980#7 25136980#8 25141428#0 25141428#1 25141428#2 41051113#1 25141430#0 173167517 -25190140#0 25149001#4 25149001#5 653473569#1 653473569#2 653473569#3 653473569#5 164051413 104010475#0 104012170 -32124745 -32124743 -32124744 -201089423#2 -201089423#1 24693977#0 24693977#1 315392062#0 160314345#0 160314345#1 160314345#2 -24634414#1 -24634414#0 23166741#2 -26677216#4 -26677216#2 -26677216#1 -54169231#2 -54169231#1 -54169231#0 -26677214#3 -26677214#2 -26676668" probability="0.00022677"/>
            <route cost="85052.85" edges="25136980#7 25136980#8 25136980#9 25149251#2 25149251#3 25149251#4 25149251#5 -30482615#4 -30482614 -25122731#1 -201963522#9 -201963522#5 -37681425#7 37681424#0 37681424#1 -18809672#5 -18809672#4 -18809672#1 10427692#0 10427692#2 10427692#3 10427692#4 10427692#5 10427692#6 10427692#7 10427692#7.50 10427692#8 201238726#0 201238726#0.117 201238726#1 201238730 176550249#0 176550249#1 176550249#2 176550249#3 176550249#4 174800513 201201945#0 201201945#1 -136436468#2 26677213#0 -26676668" probability="0.00010910"/>
            <route cost="79383.02" edges="25136980#7 25136980#8 25141428#0 25141428#1 25141428#2 41051113#1 25141430#0 173167517 25190140#1 25190140#2 -18813598#7 25136986 26642362#0 26642362#1 26642362#2 26642362#3 26642362#4 -201963533#5 -201963533#4 -201963533#1 -201963533#1.120 -201963533#1.145 -201963533#0 -285549250#1 -128361102#1 128361107#0 128361107#1 449057056 378946908 128361091 10427555#0 392714143#0 392714143#1 35744155#0 35744155#2 35744155#3 35744155#5 201201939#0 201201939#2 201201939#3 -32062034#4 -32062034#3 -32062034#0 -80518321 -136888519#1 -136888519#0 133765794#0 77414799#2 77414799#3 138396239#1 77414807#0 -137672872 -611319827 23622271#0 23622271#3 23622271#6 320733908 320733910#2 320733909#1 164078536 315358254#0 -315358257#2 -315358257#0.26 25117391#0 25117391#2 -201950259#6 -201950259#3 -26676668" probability="0.00007565"/>
            <route cost="39965.49" edges="25136980#7 -170425368 173167522#1 25149251#3 25149251#4 25149251#5 -30482615#4 -30482614 -25122731#1 -201963522#9 -201963522#5 -37681425#7 37681424#0 37681424#1 -18809672#5 -18809672#4 -18809672#1 10427692#0 10427692#2 10427692#3 10427692#4 10427692#5 10427692#6 10427692#7 10427692#7.50 10427692#8 201238726#0 201238726#0.117 201238726#1 201238719#0 170018165#0 -224892361#8 -224892361#6 -224892361#2 -224892361#1 286646456#1 315358255#0 -315358257#2 -315358257#0.26 25117391#0 25117391#2 -201950259#6 -201950259#3 -26676668" probability="0.00005291"/>
        </routeDistribution>
    </vehicle>
    <vehicle arrivalPos="25.31" arrivalSpeed="0.00" depart="56434.00" departPos="3.52" id="h4456c1:1" type="default_016">
        <routeDistribution last="0">
            <route cost="4831.59" edges="28639688#0 28639688#1 28639688#3 24890429#0 25794522 -148050453#5 -148050457#2 148050455#0 148050455#1 148050455#2 -30399663#1 -137246371#2 -137246371#1 -138002149#2 -138002149#1 -138002149#0 -25316932#4 -10425532#5 -447569998#1 -447569997#0 -315358252#1 -129379922 -315358246 -129379920#1 -129379920#0 -129379921#1 -129379921#0 129379968 -201950263#10 -201950263#6 -25117391#2 -25117391#1 315358257#0 315358257#0.43 -612075153#1 -612075153#0 399835085#0 399835085#1" probability="0.64068432"/>
            <route cost="2808.44" edges="28639688#0 28639688#1 28639688#3 24890429#0 24890429#1 24890429#2 -203127020#4 -140684000#1 -140684000#0 380273341 140684001 -233673425#1 -233673425#0 -266567307#1 -30404124 30417892 266567308#0 64464384#1 32009827 266567303 266567294#0 25797090#1 201444272#0 201444272#1 201444272#3 29027727#0 29027727#4 29027727#6 29027727#7 29027727#9 152077572#0 152077572#2 152077572#2.79 54858974 4942408 54858973#0 54858973#0.62 54858973#1 54858973#2 29119849#0 29119849#1 29119850 29119850.70 30399326#0 -137246371#2 -137246371#1 -138002149#2 -138002149#1 -138002149#0 -25316932#4 -10425532#5 -447569998#1 -447569997#0 -315358252#1 -129379922 -315358246 -129379920#1 -129379920#0 -129379921#1 -129379921#0 129379968 -201950263#10 -201950263#6 -25117391#2 -25117391#1 315358257#0 315358257#0.43 -612075153#1 -612075153#0 399835085#0 399835085#1" probability="0.22277822"/>
            <route cost="4558.97" edges="28639688#0 28639688#1 28639688#3 24890429#0 25794522 -148050453#5 -148050457#2 148050455#0 148050455#1 148050455#2 -30399663#1 -137246371#2 -137246371#1 -138002149#2 -138002149#1 -138002149#0 -25316932#4 -10425532#5 -447569998#1 -447569997#0 129379918#0 -40888351#6 -26677416#7 26677539 -201950250#1 -201950250#0 -26677214#5 -26677214#4 -26677214#3 -26677214#2 -26677213#5 136436468#1 201201945#2 201201945#3 201201945#7 201201945#8 201089420#0 315358257#0 315358257#0.43 -612075153#1 -612075153#0 399835085#0 399835085#1" probability="0.11150163"/>
            <route cost="4517.20" edges="28639688#0 28639688#1 28639688#3 24890429#0 25794522 -148050453#5 -148050457#2 148050455#0 148050455#1 148050455#2 -30399663#1 -137246371#2 -137246371#1 -138002149#2 -138002149#1 -138002149#0 -25316932#4 -10425532#5 -447569998#1 -447569997#0 -315358252#1 -129379922 -315358246 -129379920#1 -129379920#0 -129379921#1 -129379921#0 -315358250#1 -315358250#0 -379897806 -164078530 -315358244 -129379923 -315358243 -164078531#2 -164078531#1 -164078531#0 -164078531#0.84 -156788416#1 10425743 220012723 201894096#4 201894096#7 164078536 315358254#0 -612075153#1 -612075153#0 399835085#0 399835085#1" probability="0.01349712"/>
            <route cost="29122.79" edges="28639688#0 28639688#1 28639688#3 24890429#0 25794522 -148050453#5 -148050457#2 148050455#0 148050452#0 148050451#0 266565295#3 266565295#4 266565295#5 32999435 32124637#0 32124637#1 168702040#1 168702040#2 168702040#3 168702040#4 168702039#0 168702039#1 32999434#0 24693977#0 24693977#1 315392062#0 201238718#0 201238718#1 201238718#2 174800513 201201945#0 201201945#1 -136436468#2 26677213#0 201950259#0 201950259#4 -25117391#2 -25117391#1 315358257#0 315358257#0.43 -612075153#1 -612075153#0 399835085#0 399835085#1" probability="0.01153871"/>
        </routeDistribution>
    </vehicle>
    <vehicle arrivalPos="6.65" arrivalSpeed="0.00" depart="56445.00" departPos="109.26" id="randUni20366:1" type="random_016">
        <routeDistribution last="0">
            <route cost="8352.76" edges="-25640093#1 -149045269#1 gneE136 -201789797#1 -201789797#0 -30482638#13 -30482638#11 -30482638#10 -30482638#9 -30482638#8 -30482638#3 -30482638#2 -201926266 -54154921#3 -54154921#2 54154922#0 54154922#1 26071515#0 26071515#1 4324820 164051399 201956817 33279254#1 556434727 542630099 354967545#0.45 354967545#1 -266887590#1 -266887590#0 -589179144 118004640#0 -115881041#4 -115881041#3 -115881041#0 -58622231#5 -58622231#2" probability="0.73489261"/>
            <route cost="3698.11" edges="-25640093#1 149045269#2 149045269#3 201789794#0 201789794#3 308849647 266507550 30320943 378466167 266507548 257907861 151167740 266507555 266507554 266507557#0 266507557#1 172368742 172368742.57 172368742.75 172368742.185 542650763#0 542650763#1.78 542650763#2 391029008#0 391029008#1 391029008#1.77 391029008#2 -33280103#5 -26176222#1 -26176222#0 -144657087#3 -26176225#5 -26176225#4 -26176225#3 -26176225#2 -26176225#1 -26176225#0 274823622#2 25895966#0 25895966#6 29238188#3 152077572#0 152077572#2 152077572#2.79 54858974 4942408 54858973#0 54858973#0.62 54858973#1 54858973#2 29119849#0 29119849#1 -248012814 -200741048 -203127020#4 -140684000#1 -140684000#0 380273341 140684001 -233673425#1 -233673425#0 -266567307#1 -30404124 30417892 266567308#0 64464384#1 32009827 266567303 24971737#0 24971737#3 -32199989#1 -32199989#0 -32199969#5 -32199969#4 -32199969#1 -164051410#1 -164051410#0 24977473#0 54154922#0 54154922#1 26071515#0 26071515#1 4324820 164051399 201956817 33279254#1 556434727 -201953160#4 -208010459#1 -208010459#0 -376285856#6 -58622231#9 -58622231#5 -58622231#2" probability="0.23979435"/>
            <route cost="33891.19" edges="-25640093#1 149045269#2 149045269#3 -202070429#9 -202070429#6 -202070429#5 -202070429#4 -202070429#3 -202070429#2 -202070429#1 -202070429#0 151167728 257907859#0 257907859#1 -257907858#1 -115082348#5 -115082348#3 -115082348#2 -115082348#0 -24978651 28132014#0 28132014#1 42745460 42745461#0 42745461#1 54154922#0 54154922#1 26071515#0 26071515#1 4324820 26471940#0 -164051438#2 -164051438#1 -164051438#0 -164051438#0.46 -164051438#0.62 -26471933 140834262#0 140834255#0 201953160#0 -208010459#1 -461125445 -461125446#2 -115881041#4 -115881041#3 -115881041#0 -58622231#5 -58622231#2" probability="0.02486008"/>
            <route cost="10399.93" edges="-25640093#1 149045269#2 149045269#3 -202070429#9 -202070429#6 -25597372 25640093#2 -25596974#1 25596855#0 25596855#1 25596855#2 -25597196#4 -25597196#3 -25597196#2 -25597196#1 42745460 42745461#0 42745461#1 54154922#0 54154922#1 26071515#0 26071515#1 4324820 26471940#0 -164051438#2 -164051438#1 -164051438#0 -164051438#0.46 -164051438#0.62 -26471933 140834262#0 140834255#0 201953160#0 -208010459#1 -461125445 -461125446#2 -115881041#4 -115881041#3 -115881041#0 -58622231#5 -58622231#2" probability="0.00045296"/>
            <route cost="94082.82" edges="-25640093#1 149045269#2 149045269#3 -202070429#9 -202070429#6 -202070429#5 153692837#0 25640093#4 25640093#5 25640093#6 25640093#7 -115082348#2 110435735 -137463475#1 137463477#0 305390325#0 25797295#0 -201444272#0 30404130#0 30404130#1 64464420 25955089 64464430 64464399#0 64464399#1 64464432#0 64464432#1 64464432#2 -24991571 -24991573 -11014139#1 145069303#0 145069303#1 145069303#2 145069303#4 -26973015 24983010#0 24983010#1 161678033#0 -32350852#4 -32350852#3 -32350852#1 -28418764#2 -28418764#1 -28418764#0.88 -28418764#0.109 -542617943 -389831364 -102818928#1 -102818928#0 -102818928#0.78 -61940355 -24495188 -29458641 -61940356 29458640#0 172517196 -38508400#1 gneE20 33779209#1 -103718173 -27893434#1 -27893434#0 -23184317 168245119#0 -20975950#0 -37282688#1 29458100#0 201278216#0 29458647#0 37282369 354967544#0 354967544#1 354967544#2 -266887590#1 -266887590#0 -589179144 118004640#0 -115881041#4 -115881041#3 -115881041#0 -58622231#5 -58622231#2" probability="0.00000000"/>
        </routeDistribution>
    </vehicle>
    <vehicle arrivalPos="0.00" arrivalSpeed="0.00" depart="56446.00" departPos="27.05" id="h1487c1:1" type="default_016">
        <routeDistribution last="0">
            <route cost="251858.86" edges="-25145012#0 25209894#1 -25145014#2 -25145014#1 -25145014#0 22716069#1 25145012#5 -25145011#0 -653473569#2 -653473569#1 -25149001#5 -25149001#4 -25149001#3 -25149001#2 -25149001#0 -173169611#0 201956820 -29497467 25117288#0 33102205#0 -25194376#2 25076749#0 25076749#1 -25182154 33102205#3 136728366#0 136728366#1 136728351#0 136728351#1 -201969576#1 -201969576#0 102818925 102818928#1 10425610#0 156923526#0 156923526#3 390282481 51856496#0 51856496#1 51856496#2 51856496#3 51856496#4 51856496#5 51856496#6 51856496#8 204388144#0 204388144#1 18909064 gneE3 -145069347#2 29002239 35926319#0 35926319#1 -108310253 -29458096 -51856495#2 -29458097#2 -32978638#3 -32978638#0 32021112#0 51857516#1 -266565295#5 -266565295#4 -266565295#3 -266565295#2 -266565295#1 -266565295#0 -266565299 -24977590#1 -24977590#0 29238186 140684000#0 140684000#1 203127020#0 200741048 24890450 248012815#1 30399325 30399322#1.56 30399322#2 30399322#3.66 542635729 542727960 30399316#0 30399316#0.52 30399316#2 51745097#0 51745097#1 4942660 -4942659#1 24537805#0 64442509#0 128070690 229018941 -72562672 -72562701 -27082004 -30131199 -72562650" probability="0.49925618"/>
            <route cost="100893.63" edges="-25145012#0 25209894#1 -25145014#2 -25145014#1 -25145014#0 22716069#1 22716069#2 653473569#2 653473569#3 653473569#5 164051413 124812857#0 201956811#0 36689751#0 -18909063#2 -18909063#0 389831363#0 -25122830#2 29002239 35926319#0 35926319#1 32230724 77912233 32200416 29027840 77912237 32200414#0 29027839#0 29027839#2 31343367#0 29048562#0 11014139#0 24991573 24991571 64464405 266567306 64464408 64464384#1 32009827 266567303 266567294#0 31342064#1 31342064#1.83 25902677#0 137463478#0 137463478#1 137463478#2 137463478#3 29238188#0 29238188#1 29238188#3 152077572#0 152077572#2 152077572#2.79 54858974 542727960 30399316#0 30399316#0.52 30399316#2 51745097#0 51745097#1 4942660 -4942659#1 24537805#0 64442509#0 128070690 229018941 -72562672 -72562701 -27082004 -30131199 -72562650" probability="0.25478790"/>
            <route cost="244896.26" edges="-25145012#0 25209894#1 25145014#3 25145014#4 26642362#2 26642362#3 26642362#4 -201963533#5 -201963533#4 -201963533#1 -201963533#1.120 -201963533#1.145 -201963533#0 10427692#0 10427692#2 10427692#3 10427692#4 10427692#5 10427692#6 10427692#7 10427692#7.50 10427692#8 -24634510#18 -24634510#15 -24634510#8 -24634510#6 -138300620#6 176550249#3 176550249#4 174800513 201201945#0 201201945#1 -136436468#2 26677213#0 201950259#0 201950259#4 -25117391#2 -25117391#1 315358257#0 315358257#0.43 -315358254#1 -164078536 -320733909#2 -320733909#0 -320733910#1 -23622271#6 -23622271#5 -23622271#1 -42738709#1 -42738709#0.161 -42738708 -35744086#2 -126909938 -614568192 -126909931 -126909931.208 -25508272#0 gneE152 gneE151 gneE151.97 gneE149 -30131201#2 -30131201#0 -30131200#2 -30131200#0 -194377108#3 -194377108#0 -194377108#0.175 -192768914 -542730346#1 -542730346#0 -128070665#1 -128070665#0 -128070665#0.47 -128070667#1 -128070667#0 -128070666#1 -128070666#0 -72562672 -72562701 -27082004 -30131199 -72562650" probability="0.12881975"/>
            <route cost="328611.53" edges="-25145012#0 25209894#1 25145014#3 25145014#4 26642362#2 26642362#3 26642362#4 -201963533#5 -201963533#4 -201963533#1 -201963533#1.120 -201963533#1.145 -201963533#0 -285549250#1 -128361102#1 128361107#0 128361107#1 449057056 378946908 128361091 10427555#0 392714143#0 392714143#1 35744155#0 35744155#2 35744155#3 35744155#5 201201939#0 201201939#2 201201939#3 -32062034#4 -32062034#3 -32062034#0 -80518321 -136888519#1 -136888519#0 133765794#0 77414799#2 77414799#3 138396239#1 77414807#0 -137672872 -611319827 23622271#0 23622271#3 23622271#6 320733908 320733910#2 320733909#1 164078536 315358254#0 -315358257#2 -315358257#0.26 25117391#0 25117391#2 201950263#0 26677542#0 26677542#1 201950250#0 201950250#1 201950250#2 40888351#0 40888351#1 40888351#3 -129379918#1 447569997#0 447569997#1 10425532#0 25316932#0 138002149#0 138002149#1 138002149#2 137246371#0 137246371#2 137246371#2.17 30399663#0 28639688#0 28639688#1 28639688#3 116687469#0 248012815#0 248012815#1 30399325 30399322#1.56 25367735#1 -25344437#5 30399316#2 51745097#0 51745097#1 4942660 -4942659#1 24537805#0 64442509#0 128070690 229018941 -72562672 -72562701 -27082004 -30131199 -72562650" probability="0.11695516"/>
            <route cost="242535.74" edges="-25145012#0 25209894#1 25145014#3 25145014#4 26642362#2 26642362#3 26642362#4 -201963533#5 -201963533#4 -201963533#1 -201963533#1.120 -201963533#1.145 -201963533#0 10427692#0 10427692#2 10427692#3 10427692#4 10427692#5 10427692#6 10427692#7 10427692#7.50 10427692#8 -24634510#18 -24634510#15 -24634510#8 -24634510#6 -24634510#5 -24634510#0 -24634505 160314346#0 160314346#1 -315392062#4 -24693977#1 -24693977#0 -32999434#1 -24634414#5 -24634414#4 -24634414#3 -24634414#2 -24634414#1 -24634414#0 -40888350 201950247#7 201950247#8 -315358242#2 4942376 -25665446#0 53396623#0 53396623#1 -54828620 -25665537#1 25316932#0 138002149#0 138002149#1 138002149#2 137246371#0 137246371#2 137246371#2.17 30399663#0 28639688#0 28639688#1 28639688#3 116687469#0 248012815#0 248012815#1 30399325 30399322#1.56 25367735#1 -25344437#5 30399316#2 51745097#0 51745097#1 4942660 -4942659#1 24537805#0 64442509#0 128070690 306240160#0 306240160#1 -128070666#1 -128070666#0 -72562672 -72562701 -27082004 -30131199 -72562650" probability="0.00018101"/>
        </routeDistribution>
    </vehicle>
    <vehicle arrivalPos="130.19" arrivalSpeed="0.00" depart="56447.00" departPos="110.84" id="h83c1:3" type="default_016">
        <routeDistribution last="0">
            <route cost="2677.70" edges="31362504#0 -31362504#3 -32923867#0 130996520 130996520.58 172519650 305390333 172515812#0 306086241 61940356 172515808 24495188 61940355 102818925 102818928#1 10425610#0 156923526#0 156923526#3 390282481 51856496#0 51856496#1 51856496#2 51856496#3 51856496#4 51856496#5 51856496#6 51856496#8 204388144#0 204388144#1 18909064 gneE3 -145069347#2 29002239 35926319#0 35926319#1 32230724 77912233 32200416 29027840 77912237 32200414#0 29027839#0 29027839#2 31343367#0 29048562#0 11014139#0 24991573 24991571 64464405 266567306 64464408 64464384#1 32009827 266567303 266567294#0 31342064#1 31342064#1.83 25902677#0 137463478#0 137463478#1 137463478#2 137463478#3 29238188#0 29238188#1 29238188#3 152077572#0 152077572#2 152077572#2.79 54858974 4942408 54858973#0 54858973#0.62 54858973#1 54858973#2 29119849#0 29119849#1 29119850 29119850.70 30399326#0 -137246371#2 -137246371#1 -138002149#2 -138002149#1 -138002149#0 -25316932#4 -10425532#5 -447569998#1 -447569997#0 -315358252#1 -129379922 -315358246 -129379920#1 -129379920#0 -129379921#1 -129379921#0 -315358250#1 -315358250#0 -379897806 -164078530 -315358244 -129379923 -315358243 -164078531#2 -164078531#1 -164078531#0 -164078531#0.84 -156788416#1 -627181818#1 -627181818#0 -32061997#2 -32061997#0 -542769276#1 -136618613#1 -136618613#0 -35744086#2 -126909938 -614568192 -126909931 -126909931.208 -25508272#0 gneE152 gneE151 gneE151.97 192768907 202089408#0 202089408#1 198768615#0 128668757" probability="0.58473005"/>
            <route cost="18026.14" edges="31362504#0 -31362504#3 32923867#1 32923867#1.96 32923867#2 32923867#3 32923867#4 379723624#0 379723624#1 130996518#0 -233673423 -32201044#2 -32201044#1 145069336#0 145069336#1 145069336#2 145069280#0 -145069391 145069286#0 32229741 32229742#1 32229742#3 32229742#4 32229742#5 145069311#0 145069316#0 145069316#1 145069313#2 -103512667#2 -103512667#1 -145069287#7 -145069287#7.50 32230348 145069342#0 35926319#1 -108310253 -29458096 -51856495#2 -29458097#2 -32978638#3 -32978638#0 32021112#0 168702040#1 168702040#2 -24608846#1 -24608846#0 -160314345#5 -315358245 -202092675.36 -4942389#1 -4942389#0 -136436466 -315358251#1 -315358251#0 -315358242#2 -315358242#1 -315358242#0 -129379925 -129379918#1 -315358252#1 -129379922 -315358246 -129379920#1 -129379920#0 -129379921#1 -129379921#0 -315358250#1 -315358250#0 -379897806 -164078530 -315358244 -129379923 -315358243 -164078531#2 -164078531#1 -164078531#0 -164078531#0.84 -156788416#1 -627181818#1 -627181818#0 -32061997#2 -32061997#0 -542769276#1 -136618613#1 -136618613#0 -35744086#2 -126909938 -614568192 -126909931 -126909931.208 -25508272#0 gneE152 gneE151 gneE151.97 192768907 202089408#0 202089408#1 198768615#0 128668757" probability="0.39286530"/>
            <route cost="99766.58" edges="31362504#0 -31362504#3 -32923867#0 130996520 130996520.58 172519650 305390333 172515812#0 306086241 61940356 172515808 24495188 61940355 201969576#0 201969576#1 201969576#2 201969576#5 151167738#0 151167738#1 151167738#2 23442105#0 -25076787#1 -25171366#2 -25171366#1 -25171366#0 -173169611#4 25149251#0 25149251#1 25149251#2 25149251#3 25149251#4 25149251#5 -30482615#4 -30482614 -25122731#1 18809673#0 23621955#0 23621955#2 23621955#3 23621955#6 23621955#8 213286595#0 213286595#1 213286595#3 23621940#0 42487766#0 201201940#0 27998675#1 27998676#0 148529632#0 148529632#1 148529632#2 148529632#3 148529632#4 29353676#0 29353676#1 29353676#2 -24754837#0 -393420116#5 -393420116#4 23623717 -40879982#2 -188740075#5 -188740075#2 -32062034#0 -80518321 -136888519#1 -136888519#0 133765794#0 77414799#2 77414799#3 138396239#1 77414807#0 -137672872 -611319827 -42738709#1 -42738709#0.161 -42738708 -35744086#2 -126909938 -614568192 -126909931 -126909931.208 -25508272#0 gneE152 gneE151 gneE151.97 192768907 202089408#0 202089408#1 198768615#0 128668757" probability="0.02194365"/>
            <route cost="65760.07" edges="31362504#0 -31362504#3 32923867#1 32923867#1.96 32923867#2 32923867#3 32923867#4 379723624#0 379723624#1 130996518#0 -233673423 -32201044#2 -32201044#1 145069336#0 145069336#1 145069336#2 145069280#0 -145069391 145069286#0 32229741 32229742#1 32229742#3 32229742#4 32229742#5 145069311#0 145069316#0 145069316#1 145069313#2 -103512667#2 -103512667#1 -103512667#0 -145069347#2 25122830#0 32061928#2 32061928#4 24599188#0 24599188#0.75 24599188#0.94 172488482#0 -32124744 -201089423#2 -201089423#1 24693977#0 24693977#1 315392062#0 201238718#0 201238718#1 201238718#2 174800513 201201945#0 201201945#1 201201945#2 201201945#3 201201945#7 201201945#8 201089420#0 315358257#0 315358257#0.43 -315358254#1 -164078536 -320733909#2 -320733909#0 -320733910#1 -23622271#6 -23622271#5 -23622271#1 -42738709#1 -42738709#0.161 -42738708 -35744086#2 -126909938 -614568192 -126909931 -126909931.208 -25508272#0 gneE152 gneE151 gneE151.97 192768907 202089408#0 202089408#1 198768615#0 128668757" probability="0.00046100"/>
            <route cost="83603.49" edges="31362504#0 -31362504#3 -32923867#0 130996520 130996520.58 172519650 306396705 -33779209#2 gneE19 38508400#1 172515811#0 306086241 61940356 172515808 24495188 61940355 201969576#0 201969576#1 201969576#2 201969576#5 201969576#6 201969576#7 29497467 124812856#0 124812856#1 201956821#0 201956821#1.68 201963537#1 104010475#0 104012170 -32124745 -32124743 -32124744 -201089423#2 -201089423#1 24693977#0 24693977#1 315392062#0 -160314346#1 -160314346#0 24634505 24634510#0 24634510#1 24634510#6 24634510#7 24634510#9 24634510#16 201238726#0 201238726#0.117 201238726#1 201238719#0 170018165#0 170018165#1 170018165#2 170018165#2.175 306240162#0 306240162#4 148352067 77414810#0 138396239#1 77414807#0 -137672872 -611319827 -42738709#1 -42738709#0.161 -42738708 -35744086#2 -126909938 -614568192 -126909931 -126909931.208 -25508272#0 gneE152 gneE151 gneE151.97 192768907 202089408#0 202089408#1 198768615#0 128668757" probability="0.00000000"/>
        </routeDistribution>
    </vehicle>
    <vehicle arrivalPos="0.00" arrivalSpeed="0.00" depart="56457.00" departPos="18.38" id="h9671c2:1" type="default_016">
        <routeDistribution last="0">
            <route cost="183096.77" edges="25640148#0 25640148#1 25640148#2 25640157#2 92026769#6 92026769#12 -25640150 -30482638#3 -30482638#2 -201926266 -90587320 -37480109 -90587323 -10425611#1 -10425611#0 -10425611#0.35 -164051429#1 -164051429#0 -161678034#2 -161678034#2.33 -161678034#2.50 -161678034#1 -161678034#0 28119593 -24983010#2 -24983010#0 26973015 -145069303#4 -145069303#3 -145069303#1 -145069303#0 -32009683#1 -24972185#9 -24972185#8 -24972185#8.373 -24972185#1 -32978638#3 -32978638#0 32021112#0 168702040#1 168702040#2 168702040#3 168702040#4 168702039#0 168702039#1 32999434#0 24693977#0 24693977#1 315392062#0 201238718#0 201238718#1 201238718#2 174800513 201201945#0 201201945#1 -136436468#2 26677213#0 201950259#0 201950259#4 -25117391#2 -25117391#1 315358257#0 315358257#0.43 -315358254#1 -164078536 -320733909#2 -320733909#0 -320733910#1 -23622271#6 -23622271#5 -23622271#1 203127018 137672872 137672874#0 320733913 77414800#0 gneE4 148351766 220013328 139429268 320733893 4396674#0 4396674#1 125002584#0 125002584#2 297778952 297594879#0 297594879#2 -320733895#1 -161783475#6 -161783475#5 305397288#0 379795387#2 379795386 26320091 8033475#0 148596540#0 18809237#0 18809237#1 139516076 139516077#0" probability="0.65787829"/>
            <route cost="325484.91" edges="25640148#0 25640148#1 25640148#2 25640157#2 -92026769#5 -92026769#3 -92026769#2 -92026769#1 32350901#1 32350901#2 -30482638#13 25573246#0 25573246#1 -25597196#11 -25597196#9 -153692837#3 -153692837#2 -153692837#1 -153692837#0 -202070429#4 -202070429#3 -202070429#2 -202070429#1 -202070429#0 151167728 257907859#0 257907859#1 257907860#0 257907860#1.168 305390325#0 305390325#3 266567304#0 266567301#1 64464420 25955089 64464430 32009826#0 32009826#1 31342305 30404124 266567307#0 233673425#0 233673425#1 24977590#0 24977590#1 266565299 266565295#0 266565295#1 266565295#2 266565295#3 25955175#0 24608842#0 24608842#1 -160314345#6 -160314345#5 -315358245 -202092675.36 -4942389#1 -4942389#0 -136436466 386687242 23166741#0 23166741#2 23166741#5 201201945#0 201201945#1 201201945#2 201201945#3 201201945#7 201201945#8 201089420#0 315358257#0 315358257#0.43 -315358255#4 -286646456#2 -286646456#0 -224251774#1 -224251774#0 224251776#0 306240162#0 306240162#4 148352067 193806654 193806654.200 193806654.211 193806654.258 193806654.273 148351766 220013328 139429268 320733893 4396674#0 4396674#1 125002584#0 125002584#2 297778952 297594879#0 297594879#2 -320733895#1 -161783475#6 -161783475#5 305397288#0 379795387#2 379795386 26320091 8033475#0 148596540#0 18809237#0 18809237#1 139516076 139516077#0" probability="0.00000002"/>
            <route cost="144346.19" edges="25640148#0 25640148#1 25640148#2 -25640157#1 -25640157#0 25573260#0 25573260#1 25573260#2 -25597196#9 -25597196#6 -25597196#5 -25597196#4 -25380714#1 -201926266 -90587320 -37480109 -203971378#1 -25192758 90587321#0 203971379#1 -54154922#1 -54154922#0 -24977473#2 -24970784#3 -161678034#2 -161678034#2.33 -161678034#2.50 -161678034#1 -161678034#0 28119593 -24983010#2 -24983010#0 26973015 -145069303#4 -145069303#3 -145069303#1 -145069303#0 -32009683#1 -24972185#9 -24972185#8 -24972185#8.373 -24972185#1 -389840420#4 -389840420#2 24599188#0 24599188#0.75 24599188#0.94 172488482#0 -32124744 -201089423#2 22716549#0 24634509#0 24634507 24634508 -24693977#1 -24693977#0 201089423#0 201089423#2 32124744 32124743 285716192#0 285716192#0.83 201963535 -104010328 -25145012#6 -25145012#5 -22716069#1 -22716069#0 -233675413#1 -233675413#0 -136728347#4 -201963533#5 -201963533#4 -201963533#1 -201963533#1.120 -201963533#1.145 -201963533#0 -285549250#1 -128361102#1 128361107#0 128361107#1 449057056 378946908 128361091 379795371 378946906 128361098 -35926528#2 -35926528#1 -130185488#3 -130185488#2 -130185488#0 -136728344#5 -136728344#4 -136728344#3 -136728344#2 -136728344#0 -266561177#1 -266561177#0 -27830333#1 -27830333#0 -266561174#1 -391606911#4 -391606911#3 -391606911#2 -391606911#1 37255717#0 37255717#3 37255717#4 -37255726#5 -37255726#0 -307562643#0 -82628963#3 -82628963#2 -320733892#4 -320733892#2 -320733892#1 37255739#0 37255739#1 37255739#2 37255739#3 -161783475#6 -161783475#5 305397288#0 379795387#2 379795386 26320091 8033475#0 148596540#0 18809237#0 18809237#1 139516076 139516077#0" probability="0.00000001"/>
            <route cost="287967.93" edges="25640148#0 25640148#1 25640148#2 -25640157#1 25640375#0 25640145#0 25640145#2 25640145#3 25640145#4 32350901#2 201789799#0 201789799#1 201789799#2 201789798#0 201789798#1 202070435#0 10941820 201880159#0 201880159#1 201880159#2 201789796#0.31 149045266 149626676#0 307685696 -201789794#3 -201789794#2 -202070429#9 -202070429#6 -202070429#5 -202070429#4 -202070429#3 -202070429#2 -202070429#1 -202070429#0 151167728 26451152#0 202070427#0 25796375#0 25796375#1 25796375#2 25796388 gneE147 -71900674#2 25895864#0 25895864#1 26176222#1 33280103#4 33280103#4.68 4942575#0 4942575#1 4942575#2 31342349#0 31342349#3 4942408 54858973#0 54858973#0.62 54858973#1 54858973#2 29119849#0 29119849#1 29119850 29119850.70 30399662#0 30399662#1 54169280#0 54169280#1 54169280#2 54169280#3 54169280#4 4942381 -24978943#1 -160314345#6 24608846#0 24608846#1 168702040#3 168702040#4 168702039#0 168702039#1 32999434#0 201089423#0 201089423#2 32124744 32124743 285716192#0 285716192#0.83 104010439#1 202070434#0 202070434#2 -139230366 -233675413#8 -233675413#6 -233675413#3 -233675413#2 -233675413#1 -233675413#0 -136728347#4 -201963533#5 -201963533#4 -201963533#1 -201963533#1.120 -201963533#1.145 -201963533#0 -285549250#1 -128361102#1 128361107#0 128361107#1 449057056 378946908 128361091 379795371 378946906 449057059 449057052 109483352#0 109483352#1 -201238725#5 -201238725#3 27998676#0 148529632#0 130185486#0 130185486#1 130185486#2 -24754837#3 -24754837#2 24754854#0 24754854#2 24754854#3 -390068133#0 -393420112#0 -23622520#2 -23622520#1 -37256211 173658909 -391606911#3 -391606911#2 -391606911#1 -391606911#0 37255681#1 37255681#2 37255681#3 37255681#4 37255681#5 131724119#0 131724119#1 131724119#2 131724119#3 131724119#4 -136728353 -37255672 18809237#0 18809237#1 139516076 139516077#0" probability="0.12859666"/>