<routes >
    <vType color="red" id="default_015" vClass="passenger"/>
    <vType color="blue" id="random_015" vClass="passenger"/>
    <vehicle arrivalPos="0.96" arrivalSpeed="0.00" depart="53876.00" departPos="212.07" id="h4361c1:3" type="default_015">
        <routeDistribution last="0">
            <route cost="9801.02" edges="203127020#0 200741048 248012814 29119850 29119850.70 30399662#0 30399662#1 54169280#0 54169280#1 54169280#2 54169280#3 54169280#4 54169280#6 386687232#0 386687242 23166741#0 24634414#0 24634414#1 -160314345#2 -160314345#1 -160314345#0 -160314346#1 -160314346#0 24634505 24634510#0 24634510#1 24634510#6 204588664#0 23436553#3 -22690205#3 -22690205#2 -22690205#1 233675413#4 -25145011#2 -25145011#0 -653473569#2 -653473569#1 -25149001#5 -25149001#4 -25149001#3 -25149001#2 -25149001#0 -173169611#0 201956821#0 201956821#1.68 201963537#1 104010475#0 104012170" probability="0.34814615"/>
            <route cost="26836.76" edges="203127020#0 200741048 248012814 29119850 29119850.70 30399662#0 30399662#1 54169280#0 54169280#1 54169280#2 54169280#3 54169280#4 4942381 -24978943#1 -160314345#6 24608846#0 24608846#1 168702040#3 168702040#4 168702039#0 168702039#1 32999434#0 201089423#0 201089423#2 32124744 32124743 285716192#0 285716192#0.83 104010439#1 202070434#0 202070434#2 -139230366 -25145013#1 -25145013#0 653473569#5 164051413 104010475#0 104012170" probability="0.30988981"/>
            <route cost="6715.09" edges="203127020#0 200741048 248012814 29119850 29119850.70 30399662#0 30399662#1 -148050455#2 -148050455#1 -148050455#0 -306431310#1 -306431310#0 -148050448#0 -266565295#1 -266565295#0 -266565299 -24977590#1 -24977590#0 -380273343 -266565302 -24537982#4 -24537982#3 -24537982#2 -24537982#1 -31343367#1 -29027839#2 -29027839#1 -51856492#2 -29238184#1 -145069300#1 -145069300#1.112 51856495#0 29458096 108239938 104236369 145069323#0 32230349#0 25122830#0 -32061928#1 18909063#0 18909063#1 -36689751#2 10425609#0 10425609#1 201963537#1 104010475#0 104012170" probability="0.24597221"/>
            <route cost="10106.24" edges="203127020#0 200741048 248012814 29119850 29119850.70 30399662#0 30399662#1 54169280#0 54169280#1 54169280#2 54169280#3 54169280#4 54169280#6 272042143 23166741#0 24634414#0 24634414#1 -160314345#2 -160314345#1 -160314345#0 -160314346#1 24634506#0 24634506#1 24634506#2 -24634509#7 -24634509#0 -22716549#6 201089423#2 32124744 32124743 285716192#0 285716192#0.83 201963535 104010354 -164051413 -653473569#5 -653473569#4 -653473569#2 -653473569#1 -25149001#5 -25149001#4 -25149001#3 25188976#0 25188976#1 25188977 -25149001#0 -173169611#0 201956821#0 201956821#1.68 201963537#1 104010475#0 104012170" probability="0.07092437"/>
            <route cost="8817.73" edges="203127020#0 200741048 248012814 29119850 29119850.70 30399662#0 30399662#1 -148050455#2 -148050455#1 -148050455#0 -306431310#1 -306431310#0 -148050448#0 266565295#2 266565295#3 266565295#4 266565295#5 32999435 32124637#0 32124637#1 168702040#1 168702040#2 168702040#3 168702040#4 168702039#0 168702039#1 32999434#0 201089423#0 201089423#2 32124744 32124743 285716192#0 285716192#0.83 104010439#1 202070434#0 202070434#2 -139230366 -25145013#1 -25145013#0 653473569#5 164051413 104010475#0 104012170" probability="0.02506746"/>
        </routeDistribution>
    </vehicle>
    <vehicle arrivalPos="230.00" arrivalSpeed="0.00" depart="53878.00" departPos="4.73" id="h1551c1:1" type="default_015">
        <routeDistribution last="0">
            <route cost="8391.43" edges="-25187892 25145014#4 -26642362#1 -26642362#0 -25136986 18813598#7 -25190140#2 -25190140#1 -25190140#0 -25149001#3 25188976#0 25188976#1 25188977 -25149001#0 -173169611#0 201956820 -29497467 25117288#0 33102205#0 -25194376#2 25076749#0 25076749#1 -25182154 33102205#3 136728366#0 136728366#1 136728351#0 136728351#1 -201969576#1 -201969576#0 102818925 102818928#1 389831364 32124561#0 32124561#1 32124561#3 32124561#4 233673423 28418763 -379723624#1 -379723624#0 -32923867#4 -32923867#3 -32923867#2 -32923867#1 -32923867#0 130996520 130996520.58 172519650 306396705 174321447 58295043 32923863#2 266607804#0 266607804#1 266607804#2 266607803#0 266607803#1 266607803#2 266607792#0 266607792#5 200949176#0 200949176#1 116765451#0 116765451#3 -39444740#6 -201078448#1 -10597455#2 201078447#0 201078447#3 39444748#0 39444748#1 39444748#4 39444748#5 39444748#8 201243230#0 201243230#1 233673410#0 233673410#1 233673410#5 233673410#6 266607801#0 266607801#1 266607802#0 266607802#1 266607795#0 266607795#1 266607795#6 266607800#0 -200908888#2 -200908888#0 -201243223 -21966650#2 -21966650#0 54606432#7 54606432#8 54606432#9 233673422#7 233673422#9" probability="0.79022828"/>
            <route cost="13367.66" edges="-25187892 -25145014#3 -25209894#1 25145012#0 25187893 28111977#9 28111977#10 653473568#1 653473569#0 -25149001#5 -25149001#4 -25149001#3 25188976#0 25188976#1 25188977 -25149001#0 -173169611#0 201956820 -29497467 25117288#0 33102205#0 -25194376#2 25076749#0 25076749#1 -25182154 33102205#3 136728366#0 136728366#1 136728351#0 136728351#1 -201969576#1 -201969576#0 -61940355 -24495188 -29458641 -61940356 29458640#0 172517196 -38508400#1 -174609517#3 -33814393#3 -33814393#1 -33814393#0 -391208988 26339462#0 201933880#0 -26339463#9 -201933879#3 -201933879#1 -174597970#7 -174597970#6 -174597970#3 -174597970#2 -174597970#1 28577490#3 71809618#0 71809618#3 71809618#4 25375417#0 25375417#6 25375417#7 25375417#8 25375417#9 25375417#10 25375417#11 25375417#12 -25375814#1 233673410#6 266607801#0 266607801#1 266607802#0 266607802#1 266607795#0 266607795#1 266607795#6 266607800#0 201243226#0 266607805#0 266607805#1 41494424#0 233673422#0 233673422#2 233673422#4 233673422#5 233673422#7 233673422#9" probability="0.00005155"/>
            <route cost="53189.54" edges="-25187892 25145014#4 26642362#2 26642362#3 26642362#4 -201963533#5 -201963533#4 -201963533#1 -201963533#1.120 -201963533#1.145 -201963533#0 10427692#0 10427692#2 10427692#3 10427692#4 10427692#5 10427692#6 10427692#7 10427692#7.50 10427692#8 -24634510#18 -24634510#15 -24634510#8 -24634510#6 -24634510#5 -24634510#0 -24634505 160314346#0 160314346#1 -315392062#4 -24693977#1 -24693977#0 -32999434#1 32999110#0 32999110#1 402600768#0 402600768#1 51857517#0 51857517#0.33 51857517#1 51857516#1 -266565295#5 -266565295#4 -266565295#3 -266565295#2 -266565295#1 -266565295#0 -266565299 -24977590#1 -24977590#0 -233673425#1 -233673425#0 -266567307#1 -30404124 30417892 266567308#0 64464384#1 32009827 266567303 24971737#0 24971737#3 -32199989#1 -32199989#0 -32199969#5 -32199969#4 -32199969#1 -164051410#1 -164051410#0 24977473#0 54154922#0 54154922#1 26071515#0 26071515#1 4324820 164051399 201956817 33279254#1 556434727 542630099 354967545#0.45 354967545#1 141058765#0 141058765#1 141058765#2 141058765#2.33 31624236#0 172700927#0 -48742425#2 -48742425#1 -48742425#0 23184252#0 23184252#1 201926265#0 201926265#1 201926265#2 201926265#3 201926265#4 201926265#5 201278209#0 201278209#2 -20405619 -57827563#0 20266195#0 20266195#2 20266195#4 -439871826 -22486112#6 -22486112#5 -22486112#4 -22486112#3 -22486112#2 -30054884#1 -30054884#0 -141058755#1 -141058755#0 -51262567#1 22603944#0 22603945#0 22603945#1.135 22603945#1.145 55600044#0 55600044#1 55600044#2 61671904 -51872706 -51872707 -28124854#0 -51872703 -32881185#1 41494424#0 233673422#0 233673422#2 233673422#4 233673422#5 233673422#7 233673422#9" probability="0.00000056"/>
            <route cost="393992.38" edges="-25187892 25145014#4 26642362#2 26642362#3 26642362#4 -201963533#5 -201963533#4 -201963533#1 -201963533#1.120 -201963533#1.145 -201963533#0 -285549250#1 -128361102#1 128361107#0 128361107#1 449057056 378946908 128361091 10427555#0 392714143#0 392714143#1 35744155#0 35744155#2 35744155#3 35744155#5 201201939#0 201201939#2 201201939#3 -32062034#4 -32062034#3 -32062034#0 -80518321 -136888519#1 -136888519#0 133765794#0 77414799#2 77414799#3 138396239#1 77414807#0 -137672872 -611319827 -42738709#1 -42738709#0.161 -42738708 136618613#0 136618613#1 542769276#0 32061997#0 32061997#1 32061997#1.157 627181818#0 627181818#1 156788416#1 164078531#0 164078531#1 164078531#2 315358247#0 129379923 315358244 164078530 379897806 315358250#0 315358250#1 129379921#0 129379921#1 129379920#0 129379920#1 315358246 129379922 315358252#0 447569997#0 447569997#1 10425532#0 25316932#0 138002149#0 138002149#1 138002149#2 137246371#0 137246371#2 137246371#2.17 30399663#0 28639688#0 28639688#1 28639688#3 24890429#0 24890429#1 24890429#2 -203127020#4 -140684000#1 -140684000#0 380273341 140684001 -380273343 -266565302 -24537982#4 -24537982#3 -24537982#2 -24537982#1 29048562#0 145069303#0 145069303#1 145069303#2 145069303#4 -26973015 24983010#0 24983010#1 161678033#0 -32350852#4 -32350852#3 -32350852#1 -28418764#2 -28418764#1 -28418764#0.88 -28418764#0.109 32225921 32124561#1 32124561#3 32124561#4 233673423 28418763 -379723624#1 -379723624#0 -32923867#4 -32923867#3 -32923867#2 -32923867#1 -32923867#0 130996520 130996520.58 172519650 306396705 -33779209#2 gneE19 -174609517#3 -33814393#3 -33814393#1 -33814393#0 -23184274#3 -23184274#1 -23184274#0 266607803#0 266607803#1 266607803#2 266607792#0 266607792#5 200949176#0 200949176#1 116765451#0 116765451#3 390835794#0 390835794#1 266607799 168249926#0 168249926#1 29027936#0 29027936#1 233673413#0 233673413#1 207091130 207091132#0 207091132#1 207091132#2 207091132#3 207091132#4 266607796 266607798 233673420#0 233673420#1 201243230#0 201243230#1 233673410#0 233673410#1 233673410#5 233673410#6 266607801#0 266607801#1 266607802#0 266607802#1 266607795#0 266607795#1 266607795#6 266607800#0 201243226#0 266607805#0 266607805#1 41494424#0 233673422#0 233673422#2 233673422#4 233673422#5 233673422#7 233673422#9" probability="0.00000000"/>
            <route cost="985.03" edges="-25187892 -25145014#3 -25145014#2 -25145014#1 -25145014#0 22716069#1 22716069#2 653473569#2 653473569#3 653473569#5 164051413 124812857#0 201956811#0 36689751#0 33102476 173148224#1 -137685135 32202011#0 37649447#0 37649448#0 37649448#1 145069394#0 145069394#1 145069391 145069373#0 145069294#0 32201042 32201044#0 32201044#1 32201044#2 233673423 28418763 -379723624#1 -379723624#0 -32923867#4 -32923867#3 -32923867#2 -32923867#1 -32923867#0 130996520 130996520.58 172519650 306396705 174321447 58295043 32923863#2 266607804#0 266607804#1 266607804#2 266607803#0 266607803#1 266607803#2 266607792#0 266607792#5 200949176#0 200949176#1 116765451#0 116765451#3 -39444740#6 -201078448#1 -10597455#2 201078447#0 201078447#3 39444748#0 39444748#1 39444748#4 39444748#5 39444748#8 201243230#0 201243230#1 233673410#0 233673410#1 233673410#5 233673410#6 266607801#0 266607801#1 266607802#0 266607802#1 266607795#0 266607795#1 266607795#6 266607800#0 -200908888#2 -200908888#0 -201243223 -21966650#2 -21966650#0 54606432#7 54606432#8 54606432#9 233673422#7 233673422#9" probability="0.38091460"/>
        </routeDistribution>
    </vehicle>
    <vehicle arrivalPos="51.57" arrivalSpeed="0.00" depart="53879.00" departPos="57.67" id="h2984c2:1" type="default_015">
        <routeDistribution last="0">
            <route cost="725.90" edges="22879845 -22690206#0 -22690205#2 -22690205#1 233675413#4 233675413#7 -25145013#1 25145012#7 104010354 124812857#0 201956811#0 36689751#0 33102476 173148224#1 -137685135 32202011#0 37649447#0 37649448#0 37649448#1 145069394#0 145069394#1 145069391 145069373#0 145069294#0 32201042 32201044#0 32201044#1 32201044#2 233673423 28418763 -379723624#1 -379723624#0 -32923867#4 -32923867#3 -32923867#2 -32923867#1 -32923867#0 130996520 130996520.58 172519650 306396705 174321447 58295043 32923863#2 266607804#0 266607804#1 266607804#2 266607803#0 266607803#1 266607803#2 266607792#0 266607792#5 200949176#0 200949176#1 116765451#0 116765451#3 -39444740#6 -201078448#1 -10597455#2 201078447#0 201078447#3 39444748#0 39444748#1" probability="0.99999560"/>
            <route cost="7392.06" edges="22879845 -22690206#0 -22690205#2 -22690205#1 -233675413#3 -233675413#2 22716069#0 22716069#1 22716069#2 -653473569#1 -25149001#5 -25149001#4 -25149001#3 25188976#0 25188976#1 25188977 -25149001#0 -173169611#0 201956820 -29497467 25117288#0 33102205#0 -25194376#2 25076749#0 25076749#1 -25182154 33102205#3 136728366#0 136728366#1 136728351#0 136728351#1 -201969576#1 -201969576#0 102818925 102818928#1 389831364 32124561#0 32124561#1 32124561#3 32124561#4 233673423 28418763 -379723624#1 -379723624#0 -32923867#4 -32923867#3 -32923867#2 -32923867#1 -32923867#0 130996520 130996520.58 172519650 306396705 174321447 58295043 32923863#2 266607804#0 266607804#1 266607804#2 266607803#0 266607803#1 266607803#2 266607792#0 266607792#5 200949176#0 200949176#1 116765451#0 116765451#3 -39444740#6 -201078448#1 -10597455#2 201078447#0 201078447#3 39444748#0 39444748#1" probability="0.00000347"/>
            <route cost="49840.46" edges="22879845 -22690206#0 22690205#3 -23436553#3 -218647947#1 -24634510#6 -24634510#5 -24634510#0 -24634505 160314346#0 160314346#1 -315392062#4 -24693977#1 -24693977#0 -32999434#1 32999110#0 32999110#1 402600768#0 402600768#1 51857517#0 51857517#0.33 51857517#1 51857516#1 -266565295#5 -266565295#4 -266565295#3 -266565295#2 -266565295#1 -266565295#0 -266565299 -24977590#1 -24977590#0 -233673425#1 -233673425#0 -266567307#1 -30404124 30417892 266567308#0 64464384#1 32009827 266567303 24971737#0 24971737#3 -32199989#1 -32199989#0 -32199969#5 -32199969#4 -32199969#1 -164051410#1 -164051410#0 24977473#0 54154922#0 54154922#1 26071515#0 26071515#1 4324820 164051399 201956817 33279254#1 556434727 542630099 354967545#0.45 354967545#1 141058765#0 141058765#1 141058765#2 141058765#2.33 31624236#0 172700927#0 -48742425#2 -48742425#1 -48742425#0 -37282688#5 -37282688#4 -37282688#3 20975950#0 20975950#1 -20975942#2 20975952#0 20975952#1 20975952#2 -28269810#1 -163586462 -4819338#4 -4819338#3 -4819338#1 -4819338#0 266607803#0 266607803#1 266607803#2 266607792#0 266607792#5 200949176#0 200949176#1 116765451#0 116765451#3 -39444740#6 -201078448#1 -10597455#2 201078447#0 201078447#3 39444748#0 39444748#1" probability="0.00000061"/>
            <route cost="10649.57" edges="22879845 -22690206#0 -22690205#2 -22690205#1 -233675413#3 -233675413#2 22716069#0 22716069#1 22716069#2 -653473569#1 -25149001#5 -25149001#4 -25149001#3 -25149001#2 -25149001#0 -173169611#0 201956820 -29497467 25117288#0 33102205#0 -25194376#2 25076749#0 25076749#1 -25182154 33102205#3 136728366#0 136728366#1 136728351#0 136728351#1 -201969576#1 -201969576#0 -61940355 -24495188 -29458641 -61940356 29458640#0 172517196 -38508400#1 gneE20 33779209#1 174321447 58295043 32923863#2 266607804#0 266607804#1 266607804#2 266607803#0 266607803#1 266607803#2 266607792#0 266607792#5 200949176#0 200949176#1 116765451#0 116765451#3 -39444740#6 -201078448#1 -10597455#2 201078447#0 201078447#3 39444748#0 39444748#1" probability="0.00000019"/>
            <route cost="18897.81" edges="22879845 -22690206#0 -22690205#2 -22690205#1 233675413#4 233675413#7 -25145013#1 -25145013#0 653473569#5 164051413 104010475#0 104012170 -32124745 -32124743 -32124744 -201089423#2 -201089423#1 -32999434#1 32999110#0 32999110#1 402600768#0 402600768#1 51857517#0 51857517#0.33 51857517#1 51857518#1 32978638#0 32978638#1 24972185#0 24972185#2 24972185#2.111 24972185#9 29048562#0 145069303#0 145069303#1 145069303#2 145069303#4 -26973015 24983010#0 24983010#1 161678033#0 -32350852#4 -32350852#3 -32350852#1 -28418764#2 -28418764#1 -28418764#0.88 -28418764#0.109 -542617943 -389831364 -102818928#1 -102818928#0 -102818928#0.78 -61940355 -24495188 -29458641 -61940356 29458640#0 172517196 -38508400#1 -174609517#3 -33814393#3 -33814393#1 -33814393#0 -391208988 26339462#0 201933880#0 201933880#3 26339468#0 26339471#0 26339471#1 26339471#4 266607792#5 200949176#0 200949176#1 116765451#0 116765451#3 -39444740#6 -201078448#1 -10597455#2 201078447#0 201078447#3 39444748#0 39444748#1" probability="0.00000013"/>
        </routeDistribution>
    </vehicle>
    <vehicle arrivalPos="41.22" arrivalSpeed="0.00" depart="53884.00" departPos="67.37" id="randUni25522:1" type="random_015">
        <routeDistribution last="0">
            <route cost="5100.86" edges="25596993#0 25596993#5 -149044751#2 -149044751#1 -149044751#0 201880159#2 201789796#0.31 201789796#1 30320943 378466167 266507548 257907861 151167740 266507555 266507554 266507557#0 266507557#1 172368742 172368742.57 172368742.75 172368742.185 542650763#0 542650763#1.78 542650763#2 391029008#0 391029008#1 391029008#1.77 391029008#2 4942575#0 4942575#1 4942575#2 31342349#0 31342349#3 4942408 54858973#0 54858973#0.62 54858973#1 54858973#2 29119849#0 29119849#1 -248012814 -200741048 -203127020#4 -140684000#1 -140684000#0 380273341 140684001 -380273343 -266565302 -24537982#4 -24537982#3 -24537982#2 -24537982#1 29048562#0 145069303#0 145069303#1 145069303#2 145069303#4 -26973015 -24692391#3 -24692391#1 144659495 144659489 24762523#0 24762523#1 31773007 77670297#0 52572753#0 52572753#2 29119898 145069331#0 145069287#0 145069287#0.136 -103512667#0 103512671 -33102477 -33102476 -36689751#2 10425609#0 10425609#1 201956819#0 201956810 173169611#1 173169611#4 173169612 26729232#0 26729232#1 201956812 201956813#0 201956813#1 26729233#0 -28014167#3 28014167#3" probability="0.87757695"/>
            <route cost="135750.10" edges="25596993#0 25596993#5 149045845 149626676#0 307685696 -201789794#3 -201789794#2 -202070429#9 -202070429#6 -202070429#5 -202070429#4 -202070429#3 -202070429#2 -202070429#1 -202070429#0 151167728 257907859#0 257907859#1 257907860#0 257907860#1.168 305390325#0 305390325#3 266567304#0 266567301#1 64464420 25955089 64464430 64464399#0 64464399#1 64464432#0 64464432#1 64464432#2 -24991571 -24991573 -11014139#1 -32009683#1 -24972185#9 -24972185#8 -24972185#8.373 -24972185#1 -32978638#3 -32978638#0 32021112#0 168702040#1 168702040#2 168702040#3 168702040#4 168702039#0 168702039#1 32999434#0 24693977#0 24693977#1 315392062#0 -160314346#1 -160314346#0 24634505 24634510#0 24634510#1 24634510#6 24634510#7 24634510#9 24634510#16 -10427692#8 -10427692#7 -10427692#6 -10427692#5 -10427692#4 -10427692#3 -10427692#2 -10427692#1 18809672#0 18809672#2 18809672#5 -37681424#1 -37681424#0 37681425#7 201963522#5 201963522#6 25122731#0 30482614 30482615#1 30482615#5 30482615#6 201956812 201956813#0 201956813#1 26729233#0 -28014167#3 28014167#3" probability="0.06473864"/>
            <route cost="35170.55" edges="25596993#0 25596993#5 149045845 149626676#0 149626676#1 -149045269#2 25640093#0 25640093#2 -25596974#1 25596855#0 153692837#2 153692837#3 -25597196#6 -25597196#5 25595895#0 25595895#1 -30482638#2 -201926266 -90587320 -37480109 -90587323 -10425611#1 -10425611#0 -10425611#0.35 4324827#0 203971381#0 203971381#1 4324820 164051399 201956817 33279254#1 556434727 542630099 354967545#0.45 354967545#1 141058765#0 141058765#1 141058765#2 141058765#2.33 31624236#0 172700927#0 -48742425#2 -48742425#1 -48742425#0 -205182378#15 -205182378#14 -205182378#13 -20975943#2 -20975943#1 -20975943#0 -20975948#0 23184317 29458101 27893434#1 27893434#2 -33779209#2 gneE19 38508400#1 172515811#0 306086241 61940356 172515808 24495188 61940355 201969576#0 201969576#1 201969576#2 201969576#5 151167738#0 151167738#1 151167738#2 23442105#0 23442105#1 23442105#2 -25534317#1 -25534317#0 38305646#3 26729232#0 26729232#1 201956812 201956813#0 201956813#1 26729233#0 -28014167#3 28014167#3" probability="0.05670964"/>
            <route cost="238265.46" edges="25596993#0 25596993#5 -149044751#2 -149044751#1 -149044751#0 -201880159#1 -201880159#0 25625974 202070431 -201789799#2 -201789799#1 -201789799#0 -30482638#13 -30482638#11 -30482638#10 -30482638#9 -153692837#5 -153692837#4 -153692837#3 -153692837#2 -153692837#1 -153692837#0 -202070429#4 -202070429#3 -202070429#2 -202070429#1 -202070429#0 151167728 26451152#0 202070427#0 25796375#0 25796375#1 25796375#2 25638527 32202927#0 32202927#1 32202927#2 137463478#2 137463478#3 29238188#0 29238188#1 29238188#3 152077572#0 152077572#2 152077572#2.79 54858974 4942408 54858973#0 54858973#0.62 54858973#1 54858973#2 29119849#0 29119849#1 29119850 29119850.70 30399662#0 30399662#1 -148050455#2 -148050455#1 148050452#0 148050452#1 -25955175#1 24608842#0 24608842#1 -160314345#6 24608846#0 24608846#1 168702040#3 168702040#4 168702039#0 168702039#1 32999434#0 201089423#0 201089423#2 32124744 32124743 285716192#0 285716192#0.83 201963535 -104010328 -25145012#6 -25145012#5 -22716069#1 25145014#0 25145014#1 25145014#2 25145014#3 25145014#4 -26642362#1 -26642362#0 -25136986 -18813598#6 -18813598#1 25122731#0 30482614 30482615#1 30482615#5 30482615#6 201956812 201956813#0 201956813#1 26729233#0 -28014167#3 28014167#3" probability="0.00084099"/>
            <route cost="21217.04" edges="25596993#0 25596993#5 149045845 -149045266 201789796#1 30320943 378466167 266507548 257907861 151167740 266507555 266507554 266507557#0 266507557#1 172368742 172368742.57 172368742.75 172368742.185 542650762 391029010 25623127#0 25623127#1 -391029014#1 -391029014#0 -60064938#4 35779588 25623128#2 25623128#3 25623128#4 25623128#5 25623128#6 -28133087 27761238#1 -28133099 -27782265#6 -27782265#5 25616922#6 27761238#6 27761238#7 4942575#2 31342349#0 31342349#3 4942408 54858973#0 54858973#0.62 54858973#1 54858973#2 29119849#0 29119849#1 29119850 29119850.70 30399662#0 30399662#1 -148050455#2 -148050455#1 148050452#0 148050451#0 266565295#3 266565295#4 266565295#5 32999435 32124637#0 32124637#1 51857518#1 32978638#0 32978638#1 29458097#0 51856495#0 29458096 108239938 104236369 108310250 29119898 145069331#0 145069287#0 145069287#0.136 -103512667#0 103512671 -33102477 -33102476 -36689751#2 10425609#0 10425609#1 201956819#0 201956810 173169611#1 173169611#4 173169612 26729232#0 26729232#1 201956812 201956813#0 201956813#1 26729233#0 -28014167#3 28014167#3" probability="0.00013378"/>
        </routeDistribution>
    </vehicle>
    <vehicle arrivalPos="63.49" arrivalSpeed="0.00" depart="53886.00" departPos="63.72" id="h758c1:1" type="default_015">
        <routeDistribution last="0">
            <route cost="173.49" edges="32200762#5 29027840 77912237 32200414#0 29027839#0 29027839#2 31343367#0 24537982#0 24537982#2 24537982#3 24537982#4 266565302 380273343 29238186 165520704 165520703#0 -165520703#4" probability="0.87784246"/>
            <route cost="424.84" edges="32200762#5 29027840 77912237 32200414#0 29027839#0 29027839#2 31343367#0 29048562#0 11014139#0 24991573 24991571 64464405 266567306 64464408 31342305 30404124 266567307#0 233673425#0 233673425#1 29238186 165520704 165520703#0 -165520703#4" probability="0.04384588"/>
            <route cost="312.07" edges="32200762#5 29027840 77912237 32200414#0 29027839#0 29027839#2 31343367#0 24537982#0 24537982#2 24537982#3 24537982#4 266565302 380273343 24977590#0 24977590#1 266565299 266565295#0 148050453#0 148050453#2 148050453#4 148050453#5 25794520 24890429#2 -203127020#4 -140684000#1 -140684000#0 165520704 165520703#0 -165520703#4" probability="0.07831166"/>
        </routeDistribution>
    </vehicle>
    <vehicle arrivalPos="22.93" arrivalSpeed="0.00" depart="53891.00" departPos="32.01" id="h10014c1:3" type="default_015">
        <routeDistribution last="0">
            <route cost="516.19" edges="-25209894#1 25145012#0 25145012#1 25145012#2 25145012#3 25145012#4 25145012#5 25145012#6 25145013#1 139230366 27920078#0 27920078#1 -32124745 172488483#0 -83304175#2 -83304175#2.184 -83304175#2.204 32061928#5 389840420#3 24972185#0 24972185#2 24972185#2.111 24972185#9 29048562#0 11014139#0 24991573 24991571 64464405 266567306 64464408 64464384#1 32009827 266567303 266567294#0 31342064#1 31342064#1.83 25902677#0 137463474#0 137463474#1 -25796964#0 -32202927#0 -25638527 25796388 gneE147 -144657087#5 -144657087#4" probability="0.96456542"/>
            <route cost="4700.24" edges="-25209894#1 25145012#0 25187893 28111977#9 28111977#10 653473568#1 653473569#0 653473569#1 653473569#2 653473569#3 653473569#5 164051413 104010475#0 104012170 -32124745 -32124743 -32124744 -201089423#2 -201089423#1 -32999434#1 32999110#0 32999110#1 402600768#0 402600768#1 51857517#0 51857517#0.33 51857517#1 51857518#1 32978638#0 32978638#1 24972185#0 24972185#2 24972185#2.111 24972185#9 29048562#0 11014139#0 24991573 24991571 64464405 266567306 64464408 64464384#1 32009827 266567303 266567294#0 25797090#1 201444272#0 201444272#1 201444272#3 29027727#0 29027727#4 25665374 -29238188#0 -274823622#10 -274823622#7 -25895961 25638529 -32202763 gneE147 -144657087#5 -144657087#4" probability="0.03543442"/>
            <route cost="58671.39" edges="-25209894#1 -25209894#0 -28111977#7 -28111977#6 26642362#1 26642362#2 26642362#3 26642362#4 -201963533#5 -201963533#4 -201963533#1 -201963533#1.120 -201963533#1.145 -201963533#0 10427692#0 10427692#2 10427692#3 10427692#4 10427692#5 10427692#6 10427692#7 10427692#7.50 10427692#8 201238726#0 201238726#0.117 201238726#1 201238719#0 170018165#0 -224892361#8 -224892361#6 -224892361#2 -224892361#1 286646456#1 315358255#0 -315358257#2 -315358257#0.26 25117391#0 25117391#2 -201950259#6 -201950259#3 26677214#0 26677214#3 26677214#4 26677214#5 201950250#0 201950250#1 201950250#2 201950247#0 201950247#1 201950247#2 201950247#3 201950247#4 201950247#5 201950247#6 201950247#7 201950247#8 315358242#3 315358251#1 136436466 386687235 42745545#0 42745545#2 42745545#3 42745545#4 42745545#5 42745545#5.128 42745545#6 28639688#0 28639688#1 28639688#3 116687469#0 248012815#0 248012815#1 30399325 30399322#1.56 30399322#2 30399322#3.66 30399319 -152077572#2 -152077572#1 -29238188#3 -25895966#7 -25895966#5 -274823622#2 26176225#0 26176225#1 26176225#2 26176225#3 26176225#4 26176225#5 144657087#3 144657087#4 -25901706 25901706 -144657087#4" probability="0.00000016"/>
            <route cost="97303.48" edges="-25209894#1 -25209894#0 -28111977#7 -25187892 25145014#4 26642362#2 26642362#3 26642362#4 -201963533#5 -201963533#4 -201963533#1 -201963533#1.120 -201963533#1.145 -201963533#0 10427692#0 10427692#2 10427692#3 10427692#4 10427692#5 10427692#6 10427692#7 10427692#7.50 10427692#8 -24634510#18 -24634510#15 -24634510#8 -24634510#6 -24634510#5 -24634510#0 201238724 201238718#1 201238718#2 201201950#0 201201950#1 201201950#2 201201950#3 201201950#4 272042145 42745545#0 42745545#2 42745545#3 42745545#4 42745545#5 42745545#5.128 42745545#6 28639688#0 28639688#1 28639688#3 116687469#0 248012815#0 248012815#1 30399325 30399322#1.56 30399322#2 30399322#3.66 30399319 -152077572#2 -152077572#1 -29238188#3 -29238188#2 -29238188#0 -274823622#10 -274823622#7 -25895961 25638529 -32202763 gneE147 -144657087#5 -144657087#4" probability="0.00000000"/>
            <route cost="129863.10" edges="-25209894#1 -25209894#0 -28111977#7 -25187892 25145014#4 26642362#2 26642362#3 26642362#4 -201963533#5 -201963533#4 -201963533#1 -201963533#1.120 -201963533#1.145 -201963533#0 -285549250#1 -128361102#1 128361107#0 128361107#1 449057056 378946908 128361091 10427555#0 392714143#0 392714143#1 35744155#0 35744155#2 35744155#3 35744155#5 201201939#0 201201939#2 201201939#3 -32062034#4 -32062034#3 -32062034#0 -80518321 -136888519#1 -136888519#0 133765794#0 77414799#2 77414799#3 138396239#1 77414807#0 -137672872 -611319827 -42738709#1 -42738709#0.161 -42738708 136618613#0 136618613#1 542769276#0 32061997#0 32061997#1 32061997#1.157 627181818#0 627181818#1 156788416#1 164078531#0 164078531#1 164078531#2 315358247#0 129379923 315358244 164078530 379897806 315358250#0 315358250#1 129379921#0 129379921#1 129379920#0 129379920#1 315358246 129379922 315358252#0 447569997#0 447569997#1 10425532#0 25316932#0 138002149#0 138002149#1 138002149#2 137246371#0 137246371#2 137246371#2.17 30399663#0 28639688#0 28639688#1 28639688#3 116687469#0 248012815#0 248012815#1 30399325 30399322#1.56 30399322#2 30399322#3.66 30399319 -152077572#2 -152077572#1 -29238188#3 -29238188#2 -29238188#0 -274823622#10 -274823622#7 -25895961 25638529 -32202763 gneE147 -144657087#5 -144657087#4" probability="0.00000000"/>
        </routeDistribution>
    </vehicle>
    <vehicle arrivalPos="32.20" arrivalSpeed="0.00" depart="53891.00" departPos="28.36" id="h15983c2:3" type="default_015">
        <routeDistribution last="0">
            <route cost="4147.25" edges="201201950#3 -24634414#0 -40888350 201950247#7 201950247#8 315358242#3 315358251#1 136436466 4942389#0 4942389#1 202092675 315358245.27 315358248#0 315358253#0 315358253#1 315358253#2 315358253#3 402600768#0 402600768#1 51857517#0 51857517#0.33 51857517#1 51857518#1 32978638#0 32978638#1 24972185#0 24972185#2 24972185#2.111 24972185#9 29048562#0 11014139#0 24991573 24991571 64464405 266567306 64464408 64464384#1 32009827 266567303 266567294#0 25797090#1 201444272#0 201444272#1 201444272#3 29027727#0 29027727#4 29027727#6 29027727#7 29027727#9 152077572#0 152077572#2 152077572#2.79 54858974 542727960 30399316#0 30399316#0.52 30399316#2 51745097#0 51745097#1 144655546#0 150746347#0 150746347#1 150746347#2 150746347#3 150746347#4 144655547#0 144655547#1 144655547#2 -72562708 -27872584#2 -27872584#1 -27872584#0" probability="0.79300311"/>
            <route cost="68307.71" edges="201201950#3 201201950#4 272042145 42745545#0 42745545#2 42745545#3 42745545#4 42745545#5 42745545#5.128 42745545#6 28639688#0 28639688#1 28639688#3 116687469#0 248012815#0 248012815#1 30399325 30399322#1.56 30399322#2 30399322#3.66 30399319 -152077572#2 -152077572#1 -29238188#3 -25895966#7 -25895966#5 -274823622#2 -274823622#1 -274823622#0 -274823622#0.68 -31342351#1 23009600#0 23009600#2 153220338#0 153220338#2 51745097#0 51745097#1 144655546#0 28763451#0 25665421#0 25665421#1 25665421#2 29459182#0 144655547#0 144655547#1 144655547#2 -72562708 -27872584#2 -27872584#1 -27872584#0" probability="0.16105820"/>