<routes >
    <vType color="red" id="default_003" vClass="passenger"/>
    <vType color="blue" id="random_003" vClass="passenger"/>
    <vehicle arrivalPos="46.40" arrivalSpeed="0.00" depart="21489.00" departPos="125.45" id="h19142c2:3" type="default_003">
        <routeDistribution last="4">
            <route cost="695.15" edges="-130996521#1 130996518#0 -233673423 -32201044#2 -32201044#1 145069336#0 145069336#1 145069336#2 145069280#0 -145069391 145069286#0 32229741 32229742#1 32229742#3 32229742#4 32229742#5 145069384 -37649447#1 -32202011#1 51856496#8 204388144#0 204388144#1 -33102476 -36689751#2 10425609#0 10425609#1 201963537#1 -164051413 -653473569#5 25145013#0 -25145012#6 -25145012#5 -22716069#1 -22716069#0 -233675413#1 -233675413#0 -136728347#4 -201963533#5 -201963533#4 -201963533#1 -201963533#1.120 -201963533#1.145 -201963533#0 -285549250#1 -128361102#1 128361107#0 128361107#1 449057056 378946908 128361091 379795371 378946906 449057059 449057052 109483352#0 109483352#1 -201238725#5 -201238725#3 27998676#0 148529632#0 148529632#1 148529632#2 148529632#3 148529632#4 29353676#0 29353676#1 29353676#2 -24754837#0 23622520#0 23622520#1 23622520#2 -23622056#11 23623583#0 23623583#1" probability="0.23631571"/>
            <route cost="700.03" edges="-130996521#1 130996518#0 -233673423 -32201044#2 -32201044#1 145069336#0 145069336#1 145069336#2 145069280#0 -145069391 145069286#0 32229741 32229742#1 32229742#3 32229742#4 32229742#5 145069311#0 145069316#0 145069316#1 145069313#2 -103512667#2 -103512667#1 -103512667#0 103512671 -33102477 -33102476 -36689751#2 10425609#0 10425609#1 201963537#1 -164051413 -653473569#5 25145013#0 -25145012#6 -25145012#5 -22716069#1 -22716069#0 -233675413#1 -233675413#0 -136728347#4 -201963533#5 -201963533#4 -201963533#1 -201963533#1.120 -201963533#1.145 -201963533#0 -285549250#1 -128361102#1 128361107#0 128361107#1 449057056 378946908 128361091 379795371 378946906 449057059 449057052 109483352#0 109483352#1 -201238725#5 -201238725#3 27998676#0 148529632#0 148529632#1 148529632#2 148529632#3 148529632#4 29353676#0 29353676#1 29353676#2 -24754837#0 23622520#0 23622520#1 23622520#2 -23622056#11 23623583#0 23623583#1" probability="0.20620100"/>
            <route cost="705.28" edges="-130996521#1 130996518#0 -233673423 -32201044#2 -32201044#1 145069336#0 145069336#1 145069336#2 145069280#0 -145069391 145069286#0 32229741 32229742#1 32229742#3 32229742#4 32229742#5 145069384 -37649447#1 -32202011#1 51856496#8 204388144#0 204388144#1 -33102476 -36689751#2 10425609#0 10425609#1 201963537#1 -164051413 -653473569#5 25145013#0 -25145012#6 -25145012#5 -22716069#1 -22716069#0 -233675413#1 -233675413#0 -136728347#4 -201963533#5 -201963533#4 -201963533#1 -201963533#1.120 -201963533#1.145 -201963533#0 -285549250#1 -128361102#1 128361107#0 128361107#1 449057056 378946908 128361091 379795371 378946906 449057059 449057052 109483352#0 109483352#1 -201238725#5 -201238725#3 -201238725#2 -201238725#1 -24754876#13 -24754876#11 -24754876#10 -24754876#7 -24754876#6 -24754876#4 -24754876#3 -24754876#2 -24754876#0 -41139660#1 -390068133#1 -390068133#0 -393420112#0 -23622056#11 23623583#0 23623583#1" probability="0.19878550"/>
            <route cost="711.33" edges="-130996521#1 130996518#0 -233673423 -32201044#2 -32201044#1 145069336#0 145069336#1 145069336#2 145069280#0 -145069391 145069286#0 32229741 32229742#1 32229742#3 32229742#4 32229742#5 145069384 -37649447#1 -32202011#1 51856496#8 204388144#0 204388144#1 -33102476 -36689751#2 10425609#0 10425609#1 201963537#1 -164051413 -653473569#5 25145013#0 -25145012#6 -25145012#5 -25145012#4 -25145012#3 -25187889 25145014#1 25145014#2 25145014#3 25145014#4 26642362#2 -22716073 -22716072#3 -18809672#1 -285549250#1 -128361102#1 128361107#0 128361107#1 449057056 378946908 128361091 379795371 378946906 449057059 449057052 109483352#0 109483352#1 -201238725#5 -201238725#3 27998676#0 148529632#0 148529632#1 148529632#2 148529632#3 148529632#4 29353676#0 29353676#1 29353676#2 -24754837#0 23622520#0 23622520#1 23622520#2 -23622056#11 23623583#0 23623583#1" probability="0.17217376"/>
            <route cost="715.69" edges="-130996521#1 130996518#0 -233673423 -32201044#2 -32201044#1 145069336#0 145069336#1 145069336#2 145069280#0 -145069391 145069286#0 32229741 32229742#1 32229742#3 32229742#4 32229742#5 145069384 -37649447#1 -32202011#1 51856496#8 204388144#0 204388144#1 -33102476 -36689751#2 10425609#0 10425609#1 201963537#1 -164051413 -653473569#5 -653473569#4 -653473569#2 -22716069#2 -22716069#1 -22716069#0 -233675413#1 -233675413#0 -136728347#4 -201963533#5 -201963533#4 -201963533#1 -201963533#1.120 -201963533#1.145 -201963533#0 -285549250#1 -128361102#1 128361107#0 128361107#1 449057056 378946908 128361091 379795371 378946906 449057059 449057052 109483352#0 109483352#1 -201238725#5 -201238725#3 27998676#0 148529632#0 148529632#1 148529632#2 148529632#3 148529632#4 29353676#0 29353676#1 29353676#2 -24754837#0 23622520#0 23622520#1 23622520#2 -23622056#11 23623583#0 23623583#1" probability="0.18652403"/>
        </routeDistribution>
    </vehicle>
    <vehicle arrivalPos="200.00" arrivalSpeed="0.00" depart="21494.00" departPos="97.44" id="h8227c1:1" type="default_003">
        <routeDistribution last="2">
            <route cost="446.33" edges="-201238724 24634510#0 24634510#1 24634510#6 24634510#7 24634510#9 24634510#16 201238726#0 201238726#0.117 201238726#1 201238729#1 201238729#2 201238729#3 201238729#5 201238729#6 138002148 128361091 379795371 378946906 128361098 -35926528#2 -35926528#1 -130185488#3 -130185488#2 -130185488#0 -136728344#5 -136728344#4 -136728344#3 -136728344#2 -136728344#0 -266561177#1 -266561177#0 -27830333#1 -27830333#0 -266561174#1 -391606911#4 -391606911#3 -391606911#2 -391606911#1 -391606911#0 -325180705#3" probability="0.35926855"/>
            <route cost="449.94" edges="-201238724 24634510#0 24634510#1 24634510#6 24634510#7 24634510#9 24634510#16 201238726#0 201238726#0.117 201238726#1 201238729#1 201238729#2 201238729#3 201238729#5 201238729#6 138002148 128361091 379795371 378946906 128361098 -35926528#2 -35926528#1 -130185488#3 -130185488#2 -130185488#0 -136728344#5 -136728344#4 -136728344#3 -136728344#2 -136728344#0 -23623717 -393420116#2 -266561174#1 -391606911#4 -391606911#3 -391606911#2 -391606911#1 -391606911#0 -325180705#3" probability="0.24457499"/>
            <route cost="463.17" edges="-201238724 24634510#0 24634510#1 24634510#6 24634510#7 24634510#9 24634510#16 201238726#0 201238726#0.117 201238726#1 201238729#1 201238729#2 201238729#3 201238729#5 201238729#6 138002148 128361091 379795371 378946906 449057059 449057052 109483352#0 109483352#1 -201238725#5 -201238725#3 27998676#0 148529632#0 148529632#1 148529632#2 148529632#3 148529632#4 29353676#0 23623720 -393420116#4 -393420116#2 -266561174#1 -391606911#4 -391606911#3 -391606911#2 -391606911#1 -391606911#0 -325180705#3" probability="0.16870181"/>
            <route cost="494.24" edges="-201238724 24634510#0 24634510#1 24634510#6 24634510#7 24634510#9 24634510#16 -10427692#8 -10427692#7 -10427692#6 -10427692#5 -10427692#4 -10427692#3 -10427692#2 -10427692#1 -285549250#1 -128361102#1 128361107#0 128361107#1 449057056 378946908 128361091 379795371 378946906 128361098 -35926528#2 -35926528#1 -130185488#3 -130185488#2 -130185488#0 -136728344#5 -136728344#4 -136728344#3 -136728344#2 -136728344#0 -266561177#1 -266561177#0 -27830333#1 -27830333#0 -266561174#1 -391606911#4 -391606911#3 -391606911#2 -391606911#1 -391606911#0 -325180705#3" probability="0.15856832"/>
            <route cost="513.12" edges="-201238724 24634510#0 24634510#1 24634510#6 24634510#7 24634510#9 24634510#16 -10427692#8 -10427692#7 -10427692#6 -10427692#5 -10427692#4 -10427692#3 -10427692#2 -10427692#1 -285549250#1 -128361102#1 128361107#0 128361107#1 449057056 378946908 128361091 379795371 378946906 449057059 449057052 109483352#0 109483352#1 -201238725#5 -201238725#3 27998676#0 148529632#0 148529632#1 148529632#2 148529632#3 148529632#4 29353676#0 23623720 -393420116#4 -393420116#2 -266561174#1 -391606911#4 -391606911#3 -391606911#2 -391606911#1 -391606911#0 -325180705#3" probability="0.06888634"/>
        </routeDistribution>
    </vehicle>
    <vehicle arrivalPos="0.00" arrivalSpeed="0.00" depart="21494.00" departPos="47.49" id="h9410c2:1" type="default_003">
        <routeDistribution last="2">
            <route cost="104836.51" edges="153692841#3 -153692837#4 25597196#7 25597196#10 25597196#12 201789797#1 gneE143 25596993#0 25596993#5 149045845 -149045266 201789796#1 30320943 23622426 -195073412#2 -195073412#1 -195073412#0 195073415 266507536 27550700 27454737 266507535 32930761 146973160 266885714 266885716 266885719 266885719.121 266885713 221257625.670 221257625.683 221257625.1565 221257625.1575" probability="0.60788679"/>
            <route cost="100336.93" edges="153692841#3 -153692837#4 -153692837#3 gneE134 -481432711 -41139095 -25596851#6 -25596851#5 -25596851#4 -25596851#3 -25596851#2 -25596851#1 -25596851#0 201880159#1 201880159#2 201789796#0.31 201789796#1 30320943 23622426 -195073412#2 -195073412#1 -195073412#0 195073415 266507536 27550700 27454737 266507535 32930761 146973160 266885714 266885716 266885719 266885719.121 266885713 221257625.670 221257625.683 221257625.1565 221257625.1575" probability="0.13561741"/>
            <route cost="100458.01" edges="153692841#3 -153692837#4 -153692837#3 gneE134 -481432711 -41139095 gneE143 149045269#0 149045269#2 149045269#3 201789794#0 201789794#3 308849647 266507550 30320943 23622426 -195073412#2 -195073412#1 -195073412#0 195073415 266507536 27550700 27454737 266507535 32930761 146973160 266885714 266885716 266885719 266885719.121 266885713 221257625.670 221257625.683 221257625.1565 221257625.1575" probability="0.08849935"/>
            <route cost="100288.31" edges="153692841#3 153692837#5 30482638#9 30482638#10 30482638#11 30482638#12 201789799#0 201789799#1 201789799#2 201789798#0 201789798#1 202070435#0 10941820 201880159#0 201880159#1 201880159#2 201789796#0.31 201789796#1 30320943 23622426 -195073412#2 -195073412#1 -195073412#0 195073415 266507536 27550700 27454737 266507535 32930761 146973160 266885714 266885716 266885719 266885719.121 266885713 221257625.670 221257625.683 221257625.1565 221257625.1575" probability="0.08511897"/>
            <route cost="100427.64" edges="153692841#3 -153692837#4 -153692837#3 -153692837#2 -25596855#0 25596974#1 -25640093#2 25597372 202070429#6 202070429#7 201789794#0 201789794#3 308849647 266507550 30320943 23622426 -195073412#2 -195073412#1 -195073412#0 195073415 266507536 27550700 27454737 266507535 32930761 146973160 266885714 266885716 266885719 266885719.121 266885713 221257625.670 221257625.683 221257625.1565 221257625.1575" probability="0.08287747"/>
        </routeDistribution>
    </vehicle>
    <vehicle arrivalPos="71.86" arrivalSpeed="0.00" depart="21497.00" departPos="24.86" id="randUni14971:1" type="random_003">
        <routeDistribution last="0">
            <route cost="402.60" edges="33280102#2 33280102#3 33280102#5 31021475 202070430 202070429#0 202070429#1 202070429#2 202070429#3 202070429#4 202070429#5 202070429#6 202070429#7 201789794#0 201789794#3 308849647 266507550 30320943 378466167 266507548 32976755 327975020 327975024 327975024.20 327975024.51 327975019 146973189 195073416 195073418#0 195073418#1" probability="0.39518349"/>
            <route cost="378.77" edges="33280102#2 33280102#3 33280102#5 31021475 202070430 202070429#0 202070429#1 202070429#2 202070429#3 202070429#4 202070429#5 202070429#6 -25895945#2 -175761127#7 -175761127#1 -36291830 30320943 378466167 266507548 32976755 327975020 327975024 327975024.20 327975024.51 327975019 146973189 195073416 195073418#0 195073418#1" probability="0.20230242"/>
            <route cost="301.21" edges="33280102#2 33280102#3 33280102#5 31021475 202070430 202070429#0 202070429#1 202070429#2 202070429#3 202070429#4 202070429#5 202070429#6 -25895945#2 -175761127#7 -175761127#1 -26180725#2 28132852 39704923 266507553 48395120#0 48395120#1 32976755 327975020 327975024 327975024.20 327975024.51 327975019 146973189 195073416 195073418#0 195073418#1" probability="0.19908941"/>
            <route cost="389.67" edges="33280102#2 33280102#3 33280102#5 31021475 202070430 202070429#0 202070429#1 202070429#2 202070429#3 202070429#4 202070429#5 -28132813 -175761127#11 -175761127#9 -175761127#7 -175761127#1 -36291830 30320943 378466167 266507548 32976755 327975020 327975024 327975024.20 327975024.51 327975019 146973189 195073416 195073418#0 195073418#1" probability="0.20342468"/>
        </routeDistribution>
    </vehicle>
    <vehicle arrivalPos="200.00" arrivalSpeed="0.00" depart="21508.00" departPos="73.36" id="h9020c1:1" type="default_003">
        <routeDistribution last="2">
            <route cost="868.19" edges="-25597196#6 -25597196#5 25595895#0 25595895#1 -30482638#2 -201926266 -90587320 -37480109 -90587323 -10425611#1 -10425611#0 -10425611#0.35 -164051429#1 -164051429#0 -161678034#2 -161678034#2.33 -161678034#2.50 -161678034#1 -161678034#0 28119593 -24983010#2 -24983010#0 26973015 -145069303#4 -145069303#3 -145069303#1 -145069303#0 -32009683#1 -24972185#9 -24972185#8 -24972185#8.373 -24972185#1 -32978638#3 -32978638#0 32021112#0 168702040#1 168702040#2 168702040#3 168702040#4 168702039#0 168702039#1 32999434#0 24693977#0 24693977#1 315392062#0 -160314346#1 -160314346#0 24634505 24634510#0 24634510#1 24634510#6 24634510#7 24634510#9 24634510#16 201238726#0 201238726#0.117 201238726#1 201238729#1 201238729#2 201238729#3 201238729#5 201238729#6 138002148 128361091 379795371 378946906 128361098 -35926528#2 -35926528#1 -130185488#3 -130185488#2 -130185488#0 -136728344#5 -136728344#4 -136728344#3 -136728344#2 -136728344#0 -266561177#1 -266561177#0 -27830333#1 -27830333#0 -266561174#1 -391606911#4 -391606911#3 -391606911#2 -391606911#1 -391606911#0 -325180705#3" probability="0.22013154"/>
            <route cost="867.30" edges="-25597196#6 -25597196#5 -25597196#4 -25380714#1 -201926266 -90587320 -37480109 -90587323 -10425611#1 -10425611#0 -10425611#0.35 -164051429#1 -164051429#0 -161678034#2 -161678034#2.33 -161678034#2.50 -161678034#1 -161678034#0 28119593 -24983010#2 -24983010#0 26973015 -145069303#4 -145069303#3 -145069303#1 -145069303#0 -32009683#1 -24972185#9 -24972185#8 -24972185#8.373 -24972185#1 -32978638#3 -32978638#0 32021112#0 168702040#1 168702040#2 168702040#3 168702040#4 168702039#0 168702039#1 32999434#0 24693977#0 24693977#1 315392062#0 -160314346#1 -160314346#0 24634505 24634510#0 24634510#1 24634510#6 24634510#7 24634510#9 24634510#16 201238726#0 201238726#0.117 201238726#1 201238729#1 201238729#2 201238729#3 201238729#5 201238729#6 138002148 128361091 379795371 378946906 128361098 -35926528#2 -35926528#1 -130185488#3 -130185488#2 -130185488#0 -136728344#5 -136728344#4 -136728344#3 -136728344#2 -136728344#0 -266561177#1 -266561177#0 -27830333#1 -27830333#0 -266561174#1 -391606911#4 -391606911#3 -391606911#2 -391606911#1 -391606911#0 -325180705#3" probability="0.20846610"/>
            <route cost="868.12" edges="-25597196#6 -25597196#5 -25597196#4 -25597196#3 -25597196#2 -25597196#1 42745460 42745461#0 42745461#1 -24977473#2 164051410#0 164051410#1 32199969#0 32199969#2 32199969#5 32199989#0 32199989#1 323248156#0 266567301#1 64464420 25955089 64464430 32009826#0 32009826#1 31342305 30404124 266567307#0 233673425#0 233673425#1 29238186 140684000#0 140684000#1 203127020#0 200741048 248012814 29119850 29119850.70 30399662#0 30399662#1 54169280#0 54169280#1 54169280#2 54169280#3 54169280#4 54169280#6 386687232#0 386687242 23166741#0 23166741#2 23166741#5 201201953#0 201201953#2 201201953#4 201201953#10 201201953#12 176550246 201238729#1 201238729#2 201238729#3 201238729#5 201238729#6 138002148 128361091 379795371 378946906 128361098 -35926528#2 -35926528#1 -130185488#3 -130185488#2 -130185488#0 -136728344#5 -136728344#4 -136728344#3 -136728344#2 -136728344#0 -266561177#1 -266561177#0 -27830333#1 -27830333#0 -266561174#1 -391606911#4 -391606911#3 -391606911#2 -391606911#1 -391606911#0 -325180705#3" probability="0.19989172"/>
            <route cost="915.27" edges="-25597196#6 -25597196#5 -25597196#4 -25380714#1 -201926266 -90587320 -37480109 -90587323 -10425611#1 -10425611#0 -10425611#0.35 -164051429#1 -164051429#0 -161678034#2 -161678034#2.33 -161678034#2.50 -161678034#1 -161678034#0 28119593 -24983010#2 -24983010#0 26973015 -145069303#4 -145069303#3 -145069303#1 -145069303#0 -32009683#1 -24972185#9 -24972185#8 -24972185#8.373 -24972185#1 -32978638#3 -32978638#0 32021112#0 168702040#1 168702040#2 168702040#3 168702040#4 168702039#0 168702039#1 32999434#0 24693977#0 24693977#1 315392062#0 -160314346#1 -160314346#0 24634505 24634510#0 24634510#1 24634510#6 24634510#7 24634510#9 24634510#16 -10427692#8 -10427692#7 -10427692#6 -10427692#5 -10427692#4 -10427692#3 -10427692#2 -10427692#1 -285549250#1 -128361102#1 128361107#0 128361107#1 449057056 378946908 128361091 379795371 378946906 128361098 -35926528#2 -35926528#1 -130185488#3 -130185488#2 -130185488#0 -136728344#5 -136728344#4 -136728344#3 -136728344#2 -136728344#0 -266561177#1 -266561177#0 -27830333#1 -27830333#0 -266561174#1 -391606911#4 -391606911#3 -391606911#2 -391606911#1 -391606911#0 -325180705#3" probability="0.18918663"/>
            <route cost="871.81" edges="-25597196#6 -25597196#5 25595895#0 25595895#1 -30482638#2 -201926266 -90587320 -37480109 -90587323 -10425611#1 -10425611#0 -10425611#0.35 -164051429#1 -164051429#0 -161678034#2 -161678034#2.33 -161678034#2.50 -161678034#1 -161678034#0 28119593 -24983010#2 -24983010#0 26973015 -145069303#4 -145069303#3 -145069303#1 -145069303#0 -32009683#1 -24972185#9 -24972185#8 -24972185#8.373 -24972185#1 -32978638#3 -32978638#0 32021112#0 168702040#1 168702040#2 168702040#3 168702040#4 168702039#0 168702039#1 32999434#0 24693977#0 24693977#1 315392062#0 -160314346#1 -160314346#0 24634505 24634510#0 24634510#1 24634510#6 24634510#7 24634510#9 24634510#16 201238726#0 201238726#0.117 201238726#1 201238729#1 201238729#2 201238729#3 201238729#5 201238729#6 138002148 128361091 379795371 378946906 128361098 -35926528#2 -35926528#1 -130185488#3 -130185488#2 -130185488#0 -136728344#5 -136728344#4 -136728344#3 -136728344#2 -136728344#0 -23623717 -393420116#2 -266561174#1 -391606911#4 -391606911#3 -391606911#2 -391606911#1 -391606911#0 -325180705#3" probability="0.18232400"/>
        </routeDistribution>
    </vehicle>
    <vehicle arrivalPos="30.03" arrivalSpeed="0.00" depart="21511.00" departPos="49.77" id="randUni15331:1" type="random_003">
        <routeDistribution last="1">
            <route cost="471.52" edges="54169280#1 54169280#2 54169280#3 54169280#4 4942381 42745545#2 42745545#3 42745545#4 42745545#5 42745545#5.128 42745545#6 28639688#0 28639688#1 28639688#3 24890429#0 24890429#1 24890429#2 -203127020#4 -140684000#1 -140684000#0 380273341 140684001 -233673425#1 -233673425#0 -266567307#1 -30404124 30417892 266567308#0 64464384#1 32009827 266567303 266567294#0 31342064#1 31342064#1.83 31894763#0 137463475#0 116765457#0 116765457#1 28132014#0 28132014#1 42745460 42745461#0 42745461#1 54154922#0 54154922#1 26071515#0 26071515#1 4324820 164051399 201956817 33279254#1 556434727 542630099 354967545#0.45" probability="0.05031893"/>
            <route cost="394.36" edges="54169280#1 54169280#2 54169280#3 54169280#4 4942381 -24978943#1 24608844 32124634 32124637#1 51857518#1 32978638#0 32978638#1 24972185#0 24972185#2 24972185#2.111 24972185#9 29048562#0 145069303#0 145069303#1 145069303#2 145069303#4 -26973015 24983010#0 24983010#1 161678033#0 51857519#0 161678034#0 161678034#1 161678034#2 161678034#2.30 161678034#2.46 164051429#0 164051429#1 4324827#0 203971381#0 203971381#1 4324820 164051399 201956817 33279254#1 556434727 542630099 354967545#0.45" probability="0.43755230"/>
            <route cost="420.25" edges="54169280#1 54169280#2 54169280#3 54169280#4 4942381 42745545#2 42745545#3 42745545#4 42745545#5 42745545#5.128 42745545#6 28639688#0 28639688#1 28639688#3 24890429#0 24890429#1 24890429#2 -203127020#4 -140684000#1 -140684000#0 380273341 140684001 -233673425#1 -233673425#0 -266567307#1 -30404124 30417892 266567308#0 64464384#1 32009827 266567303 24971737#0 24971737#3 -32199989#1 -32199989#0 -32199969#5 -32199969#4 -32199969#1 -164051410#1 24989879 42745460 42745461#0 42745461#1 54154922#0 54154922#1 26071515#0 26071515#1 4324820 164051399 201956817 33279254#1 556434727 542630099 354967545#0.45" probability="0.26808705"/>
            <route cost="416.81" edges="54169280#1 54169280#2 54169280#3 54169280#4 4942381 -24978943#1 24608844 32124634 32124637#1 51857518#1 32978638#0 32978638#1 24972185#0 24972185#2 24972185#2.111 24972185#9 29048562#0 145069303#0 145069303#1 145069303#2 145069303#4 -26973015 24983010#0 24983010#1 161678033#0 51857519#0 161678034#0 161678034#1 161678034#2 161678034#2.30 161678034#2.46 24970784#0 24977473#0 54154922#0 54154922#1 26071515#0 26071515#1 4324820 164051399 201956817 33279254#1 556434727 542630099 354967545#0.45" probability="0.24404173"/>
        </routeDistribution>
    </vehicle>
    <vehicle arrivalPos="0.00" arrivalSpeed="0.00" depart="21512.00" departPos="16.35" id="h3831c2:1" type="default_003">
        <routeDistribution last="0">
            <route cost="100455.90" edges="24634414#4 -37386279 -24634413#2 -24634413#1 160314345#2 -24634414#1 -24634414#0 23166741#2 23166741#5 201201945#0 201201945#1 201201945#2 201201945#3 201201945#7 201201945#8 201089420#0 315358257#0 315358257#0.43 -315358255#4 -286646456#2 -286646456#0 -224251774#1 -224251774#0 224251776#0 306240162#0 306240162#4 148352067 193806654 193806654.200 193806654.211 193806654.258 193806654.273 148351766 220013328 139429268 320733893 4396674#0 4396674#1 125002584#0 125002584#2 297778952 314970097 314970098#0 gneE9 305397289#1 379795390#2 161783482#0 161783482#1 -320733903#2" probability="0.20093102"/>
            <route cost="100454.10" edges="24634414#4 -37386279 -24634413#2 -24634413#1 -24634413#0 201201950#3 -24634414#0 23166741#2 23166741#5 201201945#0 201201945#1 201201945#2 201201945#3 201201945#7 201201945#8 201089420#0 315358257#0 315358257#0.43 -315358255#4 -286646456#2 -286646456#0 -224251774#1 -224251774#0 224251776#0 306240162#0 306240162#4 148352067 193806654 193806654.200 193806654.211 193806654.258 193806654.273 148351766 220013328 139429268 320733893 4396674#0 4396674#1 125002584#0 125002584#2 297778952 314970097 314970098#0 gneE9 305397289#1 379795390#2 161783482#0 161783482#1 -320733903#2" probability="0.20078790"/>
            <route cost="100627.09" edges="24634414#4 -37386279 -24634413#2 -24634413#1 -160314345#1 -160314345#0 -160314346#1 -160314346#0 24634505 24634510#0 24634510#1 24634510#6 24634510#7 24634510#9 24634510#16 201238726#0 201238726#0.117 201238726#1 201238729#1 201238729#2 201238729#3 201238729#5 201238729#6 138002148 128361091 379795371 378946906 128361098 -35926528#2 -35926528#1 -130185488#3 -130185488#2 -130185488#0 -136728344#5 -136728344#4 -136728344#3 -136728344#2 -136728344#0 -266561177#1 -266561177#0 -27830333#1 -27830333#0 -266561178#1 -307562643#2 148527691#0 148527687#0 148527687#1 148527687#2 148527687#3 -37255738#1 -37255738#0 148527688#1 37255739#0 37255739#1 37255739#2 37255739#3 320733895#0 297594880#0 297594880#1 297778952 314970097 314970098#0 gneE9 305397289#1 379795390#2 161783482#0 161783482#1 -320733903#2" probability="0.19635327"/>
            <route cost="100459.98" edges="24634414#4 24634414#5 24634414#5.51 32999110#0 32999110#1 -315358253#3 -315358253#2 -315358253#1 -315358253#0 -315358248#1 -315358245 -202092675.36 -4942389#1 -4942389#0 -136436466 386687242 23166741#0 23166741#2 23166741#5 201201945#0 201201945#1 201201945#2 201201945#3 201201945#7 201201945#8 201089420#0 315358257#0 315358257#0.43 -315358255#4 -286646456#2 -286646456#0 -224251774#1 -224251774#0 224251776#0 306240162#0 306240162#4 148352067 193806654 193806654.200 193806654.211 193806654.258 193806654.273 148351766 220013328 139429268 320733893 4396674#0 4396674#1 125002584#0 125002584#2 297778952 314970097 314970098#0 gneE9 305397289#1 379795390#2 161783482#0 161783482#1 -320733903#2" probability="0.20046297"/>
            <route cost="100418.48" edges="24634414#4 -37386279 -24634413#2 -24634413#1 -160314345#1 -160314345#0 -160314346#1 -160314346#0 24634505 24634510#0 24634510#1 24634510#6 24634510#7 24634510#9 24634510#16 201238726#0 201238726#0.117 201238726#1 201238719#0 170018165#0 170018165#1 170018165#2 170018165#2.175 306240162#0 306240162#4 148352067 193806654 193806654.200 193806654.211 193806654.258 193806654.273 148351766 220013328 139429268 320733893 4396674#0 4396674#1 125002584#0 125002584#2 297778952 314970097 314970098#0 gneE9 305397289#1 379795390#2 161783482#0 161783482#1 -320733903#2" probability="0.20146488"/>
        </routeDistribution>
    </vehicle>
    <vehicle arrivalPos="200.00" arrivalSpeed="0.00" depart="21512.00" departPos="103.87" id="h8570c1:1" type="default_003">
        <routeDistribution last="1">
            <route cost="492.94" edges="201238724 201238718#1 201238718#2 174800513 201201953#0 201201953#2 201201953#4 201201953#10 201201953#12 176550246 201238729#1 201238729#2 201238729#3 201238729#5 201238729#6 138002148 128361091 379795371 378946906 128361098 -35926528#2 -35926528#1 -130185488#3 -130185488#2 -130185488#0 -136728344#5 -136728344#4 -136728344#3 -136728344#2 -136728344#0 -266561177#1 -266561177#0 -27830333#1 -27830333#0 -266561174#1 -391606911#4 -391606911#3 -391606911#2 -391606911#1 -391606911#0 -325180705#3" probability="0.24350035"/>
            <route cost="499.19" edges="201238724 201238718#1 201238718#2 174800513 201201953#0 201201953#2 201201953#4 201201953#10 201201953#12 176550246 201238729#1 201238729#2 201238729#3 201238729#5 201238729#6 138002148 128361091 379795371 378946906 449057059 449057052 109483352#0 109483352#1 -201238725#5 -201238725#3 27998676#0 148529632#0 148529632#1 148529632#2 148529632#3 148529632#4 29353676#0 23623720 -393420116#4 -393420116#2 -266561174#1 -391606911#4 -391606911#3 -391606911#2 -391606911#1 -391606911#0 -325180705#3" probability="0.16150960"/>
            <route cost="496.79" edges="201238724 -201238718#0 -160314346#1 -160314346#0 24634505 24634510#0 24634510#1 24634510#6 24634510#7 24634510#9 24634510#16 201238726#0 201238726#0.117 201238726#1 201238729#1 201238729#2 201238729#3 201238729#5 201238729#6 138002148 128361091 379795371 378946906 128361098 -35926528#2 -35926528#1 -130185488#3 -130185488#2 -130185488#0 -136728344#5 -136728344#4 -136728344#3 -136728344#2 -136728344#0 -266561177#1 -266561177#0 -27830333#1 -27830333#0 -266561174#1 -391606911#4 -391606911#3 -391606911#2 -391606911#1 -391606911#0 -325180705#3" probability="0.20368187"/>
            <route cost="496.56" edges="201238724 201238718#1 201238718#2 174800513 201201953#0 201201953#2 201201953#4 201201953#10 201201953#12 176550246 201238729#1 201238729#2 201238729#3 201238729#5 201238729#6 138002148 128361091 379795371 378946906 128361098 -35926528#2 -35926528#1 -130185488#3 -130185488#2 -130185488#0 -136728344#5 -136728344#4 -136728344#3 -136728344#2 -136728344#0 -23623717 -393420116#2 -266561174#1 -391606911#4 -391606911#3 -391606911#2 -391606911#1 -391606911#0 -325180705#3" probability="0.20081763"/>
            <route cost="544.70" edges="201238724 -201238718#0 -160314346#1 -160314346#0 24634505 24634510#0 24634510#1 24634510#6 24634510#7 24634510#9 24634510#16 -10427692#8 -10427692#7 -10427692#6 -10427692#5 -10427692#4 -10427692#3 -10427692#2 -10427692#1 -285549250#1 -128361102#1 128361107#0 128361107#1 449057056 378946908 128361091 379795371 378946906 128361098 -35926528#2 -35926528#1 -130185488#3 -130185488#2 -130185488#0 -136728344#5 -136728344#4 -136728344#3 -136728344#2 -136728344#0 -266561177#1 -266561177#0 -27830333#1 -27830333#0 -266561174#1 -391606911#4 -391606911#3 -391606911#2 -391606911#1 -391606911#0 -325180705#3" probability="0.19049060"/>
        </routeDistribution>
    </vehicle>
    <vehicle arrivalPos="0.00" arrivalSpeed="0.00" depart="21521.00" departPos="83.28" id="h1509c2:1" type="default_003">
        <routeDistribution last="3">
            <route cost="100699.03" edges="-25145013#1 -25145013#0 653473569#5 164051413 124812857#0 201956811#0 36689751#0 33102476 173148224#1 -137685135 -51856496#7 -51856496#5 -51856496#4 -51856496#3 -51856496#2 -51856496#1 -51856496#0 -390282481 -156923526#3 -156923526#2 -10425610#2 389831364 542617943 28418764#0 28418764#0.126 28418764#0.141 28418764#2 32350852#0 32350852#3 32350852#4 51857519#0 161678034#0 161678034#1 161678034#2 161678034#2.30 161678034#2.46 164051429#0 164051429#1 10425611#0 10425611#0.83 10425611#1 203971380 37480109 90587320 90587320.64 201926266 30482638#0 30482638#3 30482638#4 30482638#9 30482638#10 30482638#11 30482638#12 201789799#0 201789799#1 201789799#2 201789798#0 201789798#1 202070435#0 10941820 201880159#0 201880159#1 201880159#2 201789796#0.31 201789796#1 30320943 23622426 -195073412#2 -195073412#1 -195073412#0 195073415 266507536 27550700 27454737 266507535 32930761 146973160 266885714 266885716 266885719 266885719.121 266885713 221257625.670 221257625.683 221257625.1565 221257625.1575" probability="0.20023972"/>