<routes >
    <vType color="red" id="default_004" vClass="passenger"/>
    <vType color="blue" id="random_004" vClass="passenger"/>
    <vehicle arrivalPos="100.68" arrivalSpeed="0.00" depart="23755.00" departPos="50.63" id="h3640c2:1" type="default_004">
        <routeDistribution last="0">
            <route cost="471.29" edges="160314345#4 -315358245 -202092675.36 -4942389#1 -4942389#0 -136436466 -315358251#1 -315358251#0 -315358242#2 -315358242#1 -315358242#0 -129379925 -129379918#1 -315358252#1 -129379922 -315358246 -129379920#1 -129379920#0 -129379921#1 -129379921#0 -315358250#1 -315358250#0 -379897806 -164078530 -315358244 -129379923 -315358243 -164078531#2 -164078531#1 -164078531#0 -164078531#0.84 -156788416#1 -627181818#1 -627181818#0 -32061997#2 -32061997#0 -542769276#1 -136618613#1 -136618613#0 -35744086#2 -126909938 -614568192 -126909931 -126909931.208 -25508272#0 gneE152 gneE151 gneE151.97 192768907 202089408#0 202089408#1 198768615#0 128668757" probability="1.00000000"/>
        </routeDistribution>
    </vehicle>
    <vehicle arrivalPos="200.00" arrivalSpeed="0.00" depart="23755.00" departPos="82.94" id="h4429c2:1" type="default_004">
        <routeDistribution last="4">
            <route cost="602.29" edges="266565295#2 266565295#3 266565295#4 266565295#5 32999435 32124637#0 32124637#1 168702040#1 168702040#2 168702040#3 168702040#4 168702039#0 168702039#1 32999434#0 24693977#0 24693977#1 315392062#0 -160314346#1 -160314346#0 24634505 24634510#0 24634510#1 24634510#6 24634510#7 24634510#9 24634510#16 201238726#0 201238726#0.117 201238726#1 201238729#1 201238729#2 201238729#3 201238729#5 201238729#6 138002148 128361091 379795371 378946906 128361098 -35926528#2 -35926528#1 -130185488#3 -130185488#2 -130185488#0 -136728344#5 -136728344#4 -136728344#3 -136728344#2 -136728344#0 -266561177#1 -266561177#0 -27830333#1 -27830333#0 -266561174#1 -391606911#4 -391606911#3 -391606911#2 -391606911#1 -391606911#0 -325180705#3" probability="0.27865258"/>
            <route cost="681.15" edges="266565295#2 266565295#3 266565295#4 266565295#5 32999435 32124637#0 32124637#1 168702040#1 168702040#2 168702040#3 168702040#4 168702039#0 168702039#1 32999434#0 201089423#0 201089423#2 32124744 32124743 285716192#0 285716192#0.83 104010439#1 202070434#0 202070434#2 -139230366 -233675413#8 -233675413#6 -233675413#3 -233675413#2 -233675413#1 -233675413#0 -136728347#4 -201963533#5 -201963533#4 -201963533#1 -201963533#1.120 -201963533#1.145 -201963533#0 -285549250#1 -128361102#1 128361107#0 128361107#1 449057056 378946908 128361091 379795371 378946906 449057059 449057052 109483352#0 109483352#1 -201238725#5 -201238725#3 27998676#0 148529632#0 148529632#1 148529632#2 148529632#3 148529632#4 29353676#0 29353676#1 29353676#2 -24754837#0 23622520#0 -37256211 173658909 -391606911#3 -391606911#2 -391606911#1 -391606911#0 -325180705#3" probability="0.19333372"/>
            <route cost="709.09" edges="266565295#2 266565295#3 266565295#4 266565295#5 32999435 32124637#0 32124637#1 168702040#1 168702040#2 168702040#3 168702040#4 -315358253#3 -315358253#2 -315358253#1 -315358253#0 -315358248#1 -315358245 -202092675.36 -4942389#1 -4942389#0 -136436466 386687242 23166741#0 23166741#2 23166741#5 201201953#0 201201953#2 201201953#4 201201953#10 201201953#12 176550246 201238729#1 201238729#2 201238729#3 201238729#5 201238729#6 138002148 128361091 379795371 378946906 128361098 -35926528#2 -35926528#1 -130185488#3 -130185488#2 -130185488#0 -136728344#5 -136728344#4 -136728344#3 -136728344#2 -136728344#0 -23623717 -393420116#2 -266561174#1 -391606911#4 -391606911#3 -391606911#2 -391606911#1 -391606911#0 -325180705#3" probability="0.17511548"/>
            <route cost="642.31" edges="266565295#2 266565295#3 266565295#4 266565295#5 32999435 32124637#0 32124637#1 168702040#1 168702040#2 168702040#3 168702040#4 168702039#0 168702039#1 32999434#0 24693977#0 24693977#1 315392062#0 -160314346#1 -160314346#0 24634505 24634510#0 24634510#1 24634510#6 24634510#7 24634510#9 24634510#16 -10427692#8 -10427692#7 -10427692#6 -10427692#5 -10427692#4 -10427692#3 -10427692#2 -10427692#1 -285549250#1 -128361102#1 128361107#0 128361107#1 449057056 378946908 128361091 379795371 378946906 128361098 -35926528#2 -35926528#1 -130185488#3 -130185488#2 -130185488#0 -136728344#5 -136728344#4 -136728344#3 -136728344#2 -136728344#0 -266561177#1 -266561177#0 -27830333#1 -27830333#0 -266561174#1 -391606911#4 -391606911#3 -391606911#2 -391606911#1 -391606911#0 -325180705#3" probability="0.18115595"/>
            <route cost="647.68" edges="266565295#2 266565295#3 266565295#4 266565295#5 32999435 32124637#0 32124637#1 168702040#1 168702040#2 168702040#3 168702040#4 168702039#0 168702039#1 32999434#0 201089423#0 201089423#2 32124744 32124743 285716192#0 285716192#0.83 201963535 -104010328 -25145012#6 -25145012#5 -22716069#1 -22716069#0 -233675413#1 -233675413#0 -136728347#4 -201963533#5 -201963533#4 -201963533#1 -201963533#1.120 -201963533#1.145 -201963533#0 -285549250#1 -128361102#1 128361107#0 128361107#1 449057056 378946908 128361091 379795371 378946906 128361098 -35926528#2 -35926528#1 -130185488#3 -130185488#2 -130185488#0 -136728344#5 -136728344#4 -136728344#3 -136728344#2 -136728344#0 -266561177#1 -266561177#0 -27830333#1 -27830333#0 -266561174#1 -391606911#4 -391606911#3 -391606911#2 -391606911#1 -391606911#0 -325180705#3" probability="0.17174228"/>
        </routeDistribution>
    </vehicle>
    <vehicle arrivalPos="28.27" arrivalSpeed="0.00" depart="23757.00" departPos="28.27" id="h14511c2:1" type="default_004">
        <routeDistribution last="0">
            <route cost="12.90" edges="-140834262#1" probability="1.00000000"/>
        </routeDistribution>
    </vehicle>
    <vehicle arrivalPos="4.87" arrivalSpeed="0.00" depart="23761.00" departPos="124.65" id="h3531c1:1" type="default_004">
        <routeDistribution last="4">
            <route cost="566.91" edges="-24634413#2 -24634413#1 -24634413#0 201201950#3 -24634414#0 23166741#2 23166741#5 201201945#0 201201945#1 201201945#2 201201945#3 201201945#7 201201945#8 201089420#0 315358257#0 315358257#0.43 -315358254#1 -164078536 -201894096#8 -201894096#5 -201894096#3 -10425743 -627181818#1 -627181818#0 -32061997#2 -32061997#0 -542769276#1 -136618613#1 -136618613#0 -35744086#2 -126909938 -614568192 -126909931 -126909931.208 -25508272#0 gneE152 gneE151 gneE151.97 192768907 202089408#0 202089408#1 198768615#0 128668757" probability="0.21825070"/>
            <route cost="544.04" edges="-24634413#2 -24634413#1 160314345#2 160314345#3 160314345#4 -315358245 -202092675.36 -4942389#1 -4942389#0 -136436466 -315358251#1 -315358251#0 -315358242#2 -315358242#1 -315358242#0 -129379925 -129379918#1 -315358252#1 -129379922 -315358246 -129379920#1 -129379920#0 -129379921#1 -129379921#0 -315358250#1 -315358250#0 -379897806 -164078530 -315358244 -129379923 -315358243 -164078531#2 -164078531#1 -164078531#0 -164078531#0.84 -156788416#1 -627181818#1 -627181818#0 -32061997#2 -32061997#0 -542769276#1 -136618613#1 -136618613#0 -35744086#2 -126909938 -614568192 -126909931 -126909931.208 -25508272#0 gneE152 gneE151 gneE151.97 192768907 202089408#0 202089408#1 198768615#0 128668757" probability="0.21544785"/>
            <route cost="538.76" edges="-24634413#2 -24634413#1 -24634413#0 201201950#3 201201950#4 386687239#0 386687239#1 202092676#0 -136436466 -315358251#1 -315358251#0 -315358242#2 -315358242#1 -315358242#0 -129379925 -129379918#1 -315358252#1 -129379922 -315358246 -129379920#1 -129379920#0 -129379921#1 -129379921#0 -315358250#1 -315358250#0 -379897806 -164078530 -315358244 -129379923 -315358243 -164078531#2 -164078531#1 -164078531#0 -164078531#0.84 -156788416#1 -627181818#1 -627181818#0 -32061997#2 -32061997#0 -542769276#1 -136618613#1 -136618613#0 -35744086#2 -126909938 -614568192 -126909931 -126909931.208 -25508272#0 gneE152 gneE151 gneE151.97 192768907 202089408#0 202089408#1 198768615#0 128668757" probability="0.20678325"/>
            <route cost="561.92" edges="-24634413#2 -24634413#1 -160314345#1 -160314345#0 -160314346#1 -160314346#0 24634505 24634510#0 24634510#1 24634510#6 24634510#7 24634510#9 24634510#16 201238726#0 201238726#0.117 201238726#1 201238719#0 170018165#0 170018165#1 170018165#2 170018165#2.175 306240162#0 306240162#4 148352067 77414810#0 138396239#1 77414807#0 -137672872 -611319827 -42738709#1 -42738709#0.161 -42738708 -35744086#2 -126909938 -614568192 -126909931 -126909931.208 -25508272#0 gneE152 gneE151 gneE151.97 192768907 202089408#0 202089408#1 198768615#0 128668757" probability="0.17852361"/>
            <route cost="539.54" edges="-24634413#2 -24634413#1 160314345#2 -24634414#1 201201950#4 386687239#0 386687239#1 202092676#0 -136436466 -315358251#1 -315358251#0 -315358242#2 -315358242#1 -315358242#0 -129379925 -129379918#1 -315358252#1 -129379922 -315358246 -129379920#1 -129379920#0 -129379921#1 -129379921#0 -315358250#1 -315358250#0 -379897806 -164078530 -315358244 -129379923 -315358243 -164078531#2 -164078531#1 -164078531#0 -164078531#0.84 -156788416#1 -627181818#1 -627181818#0 -32061997#2 -32061997#0 -542769276#1 -136618613#1 -136618613#0 -35744086#2 -126909938 -614568192 -126909931 -126909931.208 -25508272#0 gneE152 gneE151 gneE151.97 192768907 202089408#0 202089408#1 198768615#0 128668757" probability="0.18099458"/>
        </routeDistribution>
    </vehicle>
    <vehicle arrivalPos="0.00" arrivalSpeed="0.00" depart="23761.00" departPos="4.05" id="h12467c2:1" type="default_004">
        <routeDistribution last="4">
            <route cost="100465.65" edges="25573267#1 202070429#1 202070429#2 202070429#3 202070429#4 202070429#5 202070429#6 202070429#7 201789794#0 201789794#3 308849647 266507550 30320943 23622426 -195073412#2 -195073412#1 -195073412#0 195073415 266507536 27550700 27454737 266507535 32930761 146973160 266885714 266885716 266885719 266885719.121 266885713 221257625.670 221257625.683 221257625.1565 221257625.1575" probability="0.20235881"/>
            <route cost="100336.72" edges="25573267#1 202070429#1 202070429#2 202070429#3 202070429#4 202070429#5 202070429#6 -25895945#2 -175761127#7 -175761127#1 -36291830 30320943 23622426 -195073412#2 -195073412#1 -195073412#0 195073415 266507536 27550700 27454737 266507535 32930761 146973160 266885714 266885716 266885719 266885719.121 266885713 221257625.670 221257625.683 221257625.1565 221257625.1575" probability="0.20111435"/>
            <route cost="100335.59" edges="25573267#1 202070429#1 202070429#2 202070429#3 202070429#4 202070429#5 -28132813 -175761127#11 -175761127#9 -175761127#7 -175761127#1 -36291830 30320943 23622426 -195073412#2 -195073412#1 -195073412#0 195073415 266507536 27550700 27454737 266507535 32930761 146973160 266885714 266885716 266885719 266885719.121 266885713 221257625.670 221257625.683 221257625.1565 221257625.1575" probability="0.20087201"/>
            <route cost="100561.68" edges="25573267#1 202070429#1 25596861#0 -25640093#4 153692837#1 153692837#2 gneE134 -481432711 -41139095 -25596851#6 -25596851#5 -25596851#4 -25596851#3 -25596851#2 -25596851#1 -25596851#0 201880159#1 201880159#2 201789796#0.31 201789796#1 30320943 23622426 -195073412#2 -195073412#1 -195073412#0 195073415 266507536 27550700 27454737 266507535 32930761 146973160 266885714 266885716 266885719 266885719.121 266885713 221257625.670 221257625.683 221257625.1565 221257625.1575" probability="0.19546463"/>
            <route cost="100422.11" edges="25573267#1 202070429#1 202070429#2 202070429#3 202070429#4 28132836#0 -175761127#15 -175761127#14 -175761127#13 -175761127#11 -175761127#9 -175761127#7 -175761127#1 -26180725#2 28132852 549032836 39704924 39704922 266507540 27392720 27392724 266507546 266507536 27550700 27454737 266507535 32930761 146973160 266885714 266885716 266885719 266885719.121 266885713 221257625.670 221257625.683 221257625.1565 221257625.1575" probability="0.20019014"/>
        </routeDistribution>
    </vehicle>
    <vehicle arrivalPos="0.00" arrivalSpeed="0.00" depart="23764.00" departPos="18.14" id="h9259c1:1" type="default_004">
        <routeDistribution last="1">
            <route cost="100504.99" edges="-596846692 -92026769#12 -92026769#11 -92026769#5 -92026769#3 -92026769#2 -92026769#1 -92026769#0 -25895947#1 -25895947#0 -202070435#1 10941820 201880159#0 201880159#1 201880159#2 201789796#0.31 201789796#1 30320943 23622426 -195073412#2 -195073412#1 -195073412#0 195073415 266507536 27550700 27454737 266507535 32930761 146973160 266885714 266885716 266885719 266885719.121 266885713 221257625.670 221257625.683 221257625.1565 221257625.1575" probability="0.20042296"/>
            <route cost="100365.01" edges="-596846692 -92026769#12 25640148#0 25640148#1 25640148#2 -25640157#1 25640375#0 25640145#0 25640145#2 25640145#3 25640145#4 32350901#2 201789797#0 201789797#1 gneE143 149045269#0 149045269#2 149045269#3 -202070429#9 -25895945#2 -175761127#7 -175761127#1 -36291830 30320943 23622426 -195073412#2 -195073412#1 -195073412#0 195073415 266507536 27550700 27454737 266507535 32930761 146973160 266885714 266885716 266885719 266885719.121 266885713 221257625.670 221257625.683 221257625.1565 221257625.1575" probability="0.20009176"/>
            <route cost="100513.72" edges="-596846692 -92026769#12 25640148#0 25640148#1 25640148#2 -25640157#1 -25640157#0 25573260#0 -25573254 25573246#1 25597196#12 201789797#1 gneE143 149045269#0 149045269#2 149045269#3 201789794#0 201789794#3 308849647 266507550 30320943 23622426 -195073412#2 -195073412#1 -195073412#0 195073415 266507536 27550700 27454737 266507535 32930761 146973160 266885714 266885716 266885719 266885719.121 266885713 221257625.670 221257625.683 221257625.1565 221257625.1575" probability="0.19990864"/>
            <route cost="100527.64" edges="-596846692 -25640150 30482638#4 -153692837#5 -153692837#4 -153692837#3 -153692837#2 -153692837#1 -153692837#0 202070429#5 202070429#6 202070429#7 201789794#0 201789794#3 308849647 266507550 30320943 23622426 -195073412#2 -195073412#1 -195073412#0 195073415 266507536 27550700 27454737 266507535 32930761 146973160 266885714 266885716 266885719 266885719.121 266885713 221257625.670 221257625.683 221257625.1565 221257625.1575" probability="0.19985013"/>
            <route cost="100510.57" edges="-596846692 -25640150 30482638#4 -153692837#5 -153692837#4 -153692837#3 -153692837#2 -25596855#0 25596974#1 -25640093#2 25597372 202070429#6 202070429#7 201789794#0 201789794#3 308849647 266507550 30320943 23622426 -195073412#2 -195073412#1 -195073412#0 195073415 266507536 27550700 27454737 266507535 32930761 146973160 266885714 266885716 266885719 266885719.121 266885713 221257625.670 221257625.683 221257625.1565 221257625.1575" probability="0.19972650"/>
        </routeDistribution>
    </vehicle>
    <vehicle arrivalPos="0.00" arrivalSpeed="0.00" depart="23769.00" departPos="40.07" id="h9389c1:1" type="default_004">
        <routeDistribution last="1">
            <route cost="327.77" edges="153692837#2 153692837#3 153692837#4 153692841#4 25573260#2 -25597196#9 -153692837#3 -153692837#2 -25596855#0 25596974#1 -25640093#2 25597372 202070429#6 -25895945#2 -175761127#7 -175761127#1 -26180725#2 28132852 549032836 39704924 39704922" probability="0.32191593"/>
            <route cost="277.69" edges="153692837#2 gneE134 -481432711 -41139095 gneE143 149045269#0 149045269#2 149045269#3 -202070429#9 -25895945#2 -175761127#7 -175761127#1 -26180725#2 28132852 549032836 39704924 39704922" probability="0.23821667"/>
            <route cost="275.23" edges="153692837#2 gneE134 -481432711 -41139095 gneE143 149045269#0 149045269#2 149045269#3 -202070429#9 -25895945#2 -175761127#7 -175761127#1 -36291830 30320943 378466167 266507548 257907861 151167740 266507555 266507558 39704924 39704922" probability="0.19662006"/>
            <route cost="427.34" edges="153692837#2 gneE134 -481432711 25596974#0 25596974#1 -25640093#2 25597372 202070429#6 202070429#7 201789794#0 201789794#3 308849647 266507550 30320943 378466167 266507548 257907861 151167740 266507555 266507558 39704924 39704922" probability="0.17816539"/>
            <route cost="439.98" edges="153692837#2 gneE134 -481432711 -41139095 -25596851#6 -25596851#5 -25596851#4 -25596851#3 -25596851#2 -25596851#1 -25596851#0 201880159#1 201880159#2 201789796#0.31 201789796#1 30320943 378466167 266507548 257907861 151167740 266507555 266507558 39704924 39704922" probability="0.06508195"/>
        </routeDistribution>
    </vehicle>
    <vehicle arrivalPos="200.00" arrivalSpeed="0.00" depart="23778.00" departPos="135.17" id="h3161c1:1" type="default_004">
        <routeDistribution last="3">
            <route cost="552.06" edges="24634508 315392062#0 -160314346#1 -160314346#0 24634505 24634510#0 24634510#1 24634510#6 24634510#7 24634510#9 24634510#16 201238726#0 201238726#0.117 201238726#1 201238729#1 201238729#2 201238729#3 201238729#5 201238729#6 138002148 128361091 379795371 378946906 449057059 449057052 109483352#0 109483352#1 -201238725#5 -201238725#3 27998676#0 148529632#0 148529632#1 148529632#2 148529632#3 148529632#4 29353676#0 29353676#1 29353676#2 -24754837#0 23622520#0 -37256211 173658909 -391606911#3 -391606911#2 -391606911#1 -391606911#0 -325180705#3" probability="0.28787811"/>
            <route cost="524.44" edges="24634508 315392062#0 -160314346#1 -160314346#0 24634505 24634510#0 24634510#1 24634510#6 24634510#7 24634510#9 24634510#16 201238726#0 201238726#0.117 201238726#1 201238729#1 201238729#2 201238729#3 201238729#5 201238729#6 138002148 128361091 379795371 378946906 128361098 -35926528#2 -35926528#1 -130185488#3 -130185488#2 -130185488#0 -136728344#5 -136728344#4 -136728344#3 -136728344#2 -136728344#0 -266561177#1 -266561177#0 -27830333#1 -27830333#0 -266561174#1 -391606911#4 -391606911#3 -391606911#2 -391606911#1 -391606911#0 -325180705#3" probability="0.32705904"/>
            <route cost="576.99" edges="24634508 -24693977#1 -24693977#0 201089423#0 201089423#2 32124744 32124743 285716192#0 285716192#0.83 201963535 -104010328 -25145012#6 -25145012#5 -22716069#1 -22716069#0 -233675413#1 -233675413#0 -136728347#4 -201963533#5 -201963533#4 -201963533#1 -201963533#1.120 -201963533#1.145 -201963533#0 -285549250#1 -128361102#1 128361107#0 128361107#1 449057056 378946908 128361091 379795371 378946906 128361098 -35926528#2 -35926528#1 -130185488#3 -130185488#2 -130185488#0 -136728344#5 -136728344#4 -136728344#3 -136728344#2 -136728344#0 -266561177#1 -266561177#0 -27830333#1 -27830333#0 -266561174#1 -391606911#4 -391606911#3 -391606911#2 -391606911#1 -391606911#0 -325180705#3" probability="0.11727746"/>
            <route cost="543.34" edges="24634508 315392062#0 -160314346#1 -160314346#0 24634505 24634510#0 24634510#1 24634510#6 24634510#7 24634510#9 24634510#16 201238726#0 201238726#0.117 201238726#1 201238729#1 201238729#2 201238729#3 201238729#5 201238729#6 138002148 128361091 379795371 378946906 128361098 -35926528#2 -35926528#1 -130185488#3 -130185488#2 -130185488#0 -136728344#5 -136728344#4 -136728344#3 -136728344#2 -136728344#0 -23623717 -393420116#2 -266561174#1 -391606911#4 -391606911#3 -391606911#2 -391606911#1 -391606911#0 -325180705#3" probability="0.19993969"/>
            <route cost="532.36" edges="24634508 315392062#0 -160314346#1 -160314346#0 24634505 24634510#0 24634510#1 24634510#6 24634510#7 24634510#9 24634510#16 -10427692#8 -10427692#7 -10427692#6 -10427692#5 -10427692#4 -10427692#3 -10427692#2 -10427692#1 -285549250#1 -128361102#1 128361107#0 128361107#1 449057056 378946908 128361091 379795371 378946906 128361098 -35926528#2 -35926528#1 -130185488#3 -130185488#2 -130185488#0 -136728344#5 -136728344#4 -136728344#3 -136728344#2 -136728344#0 -266561177#1 -266561177#0 -27830333#1 -27830333#0 -266561174#1 -391606911#4 -391606911#3 -391606911#2 -391606911#1 -391606911#0 -325180705#3" probability="0.06784570"/>
        </routeDistribution>
    </vehicle>
    <vehicle arrivalPos="11.20" arrivalSpeed="0.00" depart="23779.00" departPos="14.40" id="randUni3397:1" type="random_004">
        <routeDistribution last="2">
            <route cost="254.42" edges="386687235 42745545#0 -24978943#1 24608844 32124634 32124637#1 51857518#1 32978638#0 32978638#1 24972185#0 24972185#2 24972185#2.111 24972185#9 29048562#0 145069303#0 145069303#1 145069303#2 145069303#4 -26973015 -24692391#3 -24692391#1 144659495 144659489 28268963" probability="0.53185134"/>
            <route cost="376.53" edges="386687235 42745545#0 42745545#2 42745545#3 42745545#4 42745545#5 42745545#5.128 42745545#6 28639688#0 28639688#1 28639688#3 116687469#0 248012815#0 248012815#1 30399325 30399322#1.56 30399322#2 30399322#3.66 30399319 -152077572#2 -152077572#1 -29027727#9 -29027727#8 -29027727#6 -29027727#5 -29027727#2 -201444272#4 -201444272#2 -201444272#0 30404130#0 30404130#1 64464420 25955089 64464430 64464399#0 64464399#1 64464432#0 64464432#1 64464432#2 -24991571 -24991573 -11014139#1 145069303#0 145069303#1 145069303#2 145069303#4 -26973015 -24692391#3 -24692391#1 144659495 144659489 28268963" probability="0.00818968"/>
            <route cost="301.01" edges="386687235 42745545#0 42745545#2 42745545#3 42745545#4 42745545#5 42745545#5.128 42745545#6 28639688#0 28639688#1 28639688#3 24890429#0 24890429#1 24890429#2 -203127020#4 -140684000#1 -140684000#0 380273341 140684001 -380273343 -266565302 -24537982#4 -24537982#3 -24537982#2 -24537982#1 29048562#0 145069303#0 145069303#1 145069303#2 145069303#4 -26973015 -24692391#3 -24692391#1 144659495 144659489 28268963" probability="0.26951447"/>
            <route cost="295.64" edges="386687235 42745545#0 42745545#2 42745545#3 42745545#4 42745545#5 42745545#5.128 42745545#6 28639688#0 28639688#1 28639688#3 24890429#0 24890429#1 24890429#2 -203127020#4 -140684000#1 -140684000#0 380273341 140684001 -233673425#1 -233673425#0 -266567307#1 -30404124 30417892 64464397#0 64464432#2 -24991571 -24991573 -11014139#1 145069303#0 145069303#1 145069303#2 145069303#4 -26973015 -24692391#3 -24692391#1 144659495 144659489 28268963" probability="0.19044451"/>
        </routeDistribution>
    </vehicle>
    <vehicle arrivalPos="33.33" arrivalSpeed="0.00" depart="23779.00" departPos="43.75" id="randUni31133:1" type="random_004">
        <routeDistribution last="0">
            <route cost="697.85" edges="137463474#0 25797315#0 32202927#2 137463478#2 137463478#3 29238188#0 29238188#1 29238188#3 152077572#0 152077572#2 152077572#2.79 54858974 4942408 54858973#0 54858973#0.62 54858973#1 54858973#2 29119849#0 29119849#1 29119850 29119850.70 30399662#0 30399662#1 54169280#0 54169280#1 54169280#2 54169280#3 54169280#4 54169280#6 386687232#0 386687242 23166741#0 23166741#2 23166741#5 201201953#0 201201953#2 201201953#4 201201953#10 201201953#12 176550246 201238729#1 201238729#2 201238729#3 201238729#5 201238729#6 138002148 128361091 379795371 378946906 449057059 449057052 378946907 379795373 128361094#0 -201201940#4 -201201940#0 -42487766#2 -23621940#1 -213286595#4 -213286595#1 -213286595#0" probability="0.23244522"/>
            <route cost="682.02" edges="137463474#0 25797315#0 32202927#2 -137463478#1 -137463478#0 25796398#0 305390325#0 25797295#0 -201444272#0 30404130#0 30404130#1 64464420 25955089 64464430 32009826#0 32009826#1 31342305 30404124 266567307#0 233673425#0 233673425#1 24977590#0 24977590#1 266565299 266565295#0 266565295#1 266565295#2 266565295#3 266565295#4 266565295#5 32999435 32124637#0 32124637#1 168702040#1 168702040#2 168702040#3 168702040#4 168702039#0 168702039#1 32999434#0 201089423#0 201089423#2 32124744 32124743 285716192#0 285716192#0.83 201963535 104010354 -164051413 -653473569#5 -653473569#4 -653473569#2 -653473569#1 -653473569#0 -653473568#1 -653473568#0 -18813598#8 -18813598#7 -18813598#6 -18813598#1 18809673#0 23621955#0 23621955#2 23621955#3 23621955#6 23621955#8 213286595#0 -23622131#2 23622131#0 23622131#1 23622131#2 -213286595#0" probability="0.20040466"/>
            <route cost="697.51" edges="137463474#0 25797315#0 32202927#2 137463478#2 137463478#3 29238188#0 29238188#1 29238188#3 152077572#0 152077572#2 152077572#2.79 54858974 4942408 54858973#0 54858973#0.62 54858973#1 54858973#2 29119849#0 29119849#1 29119850 29119850.70 30399662#0 30399662#1 54169280#0 54169280#1 54169280#2 54169280#3 54169280#4 54169280#6 386687232#0 136436466 4942389#0 4942389#1 202092675 315358245.27 -160314345#4 -160314345#3 -160314345#2 -160314345#1 -160314345#0 -160314346#1 -160314346#0 24634505 24634510#0 24634510#1 24634510#6 24634510#7 24634510#9 24634510#16 -10427692#8 -10427692#7 -10427692#6 -10427692#5 -10427692#4 -10427692#3 -10427692#2 -10427692#1 -285549250#1 -128361102#1 23623674#0 23623674#11 -201201940#0 -42487766#2 -23621940#1 -213286595#4 -213286595#1 -213286595#0" probability="0.19454112"/>
            <route cost="717.33" edges="137463474#0 25797315#0 25797315#1 25797433#2 25797433#3 137463478#3 29238188#0 29238188#1 29238188#3 152077572#0 152077572#2 152077572#2.79 54858974 4942408 54858973#0 54858973#0.62 54858973#1 54858973#2 29119849#0 29119849#1 29119850 29119850.70 30399662#0 30399662#1 54169280#0 54169280#1 54169280#2 54169280#3 54169280#4 54169280#6 272042143 23166741#0 23166741#2 23166741#5 201201953#0 201201953#2 201201953#4 201201953#10 201201953#12 176550246 201238729#1 201238729#2 201238729#3 201238729#5 201238729#6 138002148 128361091 379795371 378946906 449057059 449057052 378946907 379795373 128361094#0 -201201940#4 -201201940#0 -42487766#2 -23621940#1 -213286595#4 -213286595#1 -213286595#0" probability="0.19411096"/>
            <route cost="704.30" edges="137463474#0 25797315#0 25797315#1 25797433#2 25797433#3 29238187#0 29238187#1 29238187#2 -29027727#2 -201444272#4 -201444272#2 -201444272#0 30404130#0 30404130#1 64464420 25955089 64464430 32009826#0 32009826#1 31342305 30404124 266567307#0 233673425#0 233673425#1 24977590#0 24977590#1 266565299 266565295#0 266565295#1 266565295#2 266565295#3 266565295#4 266565295#5 32999435 32124637#0 32124637#1 168702040#1 168702040#2 168702040#3 168702040#4 168702039#0 168702039#1 32999434#0 24693977#0 24693977#1 315392062#0 -160314346#1 -160314346#0 24634505 24634510#0 24634510#1 24634510#6 24634510#7 24634510#9 24634510#16 -10427692#8 -10427692#7 -10427692#6 -10427692#5 -10427692#4 -10427692#3 -10427692#2 -10427692#1 -285549250#1 -128361102#1 23623674#0 23623674#11 -201201940#0 -42487766#2 -23621940#1 -213286595#4 -213286595#1 -213286595#0" probability="0.17849804"/>
        </routeDistribution>
    </vehicle>
    <vehicle arrivalPos="200.00" arrivalSpeed="0.00" depart="23781.00" departPos="104.42" id="h834c1:1" type="default_004">
        <routeDistribution last="3">
            <route cost="781.74" edges="77912241 32200762#5 29027840 77912237 32200414#0 -51856492#2 -29238184#1 -145069300#1 -145069300#1.112 -29458097#2 -32978638#3 -32978638#0 32021112#0 168702040#1 168702040#2 168702040#3 168702040#4 168702039#0 168702039#1 32999434#0 24693977#0 24693977#1 315392062#0 -160314346#1 -160314346#0 24634505 24634510#0 24634510#1 24634510#6 24634510#7 24634510#9 24634510#16 201238726#0 201238726#0.117 201238726#1 201238729#1 201238729#2 201238729#3 201238729#5 201238729#6 138002148 128361091 379795371 378946906 128361098 -35926528#2 -35926528#1 -130185488#3 -130185488#2 -130185488#0 -136728344#5 -136728344#4 -136728344#3 -136728344#2 -136728344#0 -266561177#1 -266561177#0 -27830333#1 -27830333#0 -266561174#1 -391606911#4 -391606911#3 -391606911#2 -391606911#1 -391606911#0 -325180705#3" probability="0.23940056"/>
            <route cost="788.94" edges="77912241 32200762#5 29027840 77912237 32200414#0 -51856492#2 -29238184#1 -145069300#1 -145069300#1.112 -29458097#2 -32978638#3 -32978638#0 32021112#0 168702040#1 168702040#2 168702040#3 168702040#4 168702039#0 168702039#1 32999434#0 201089423#0 201089423#2 32124744 32124743 285716192#0 285716192#0.83 104010439#1 202070434#0 202070434#2 -139230366 -233675413#8 -233675413#6 -233675413#3 -233675413#2 -233675413#1 -233675413#0 -136728347#4 -201963533#5 -201963533#4 -201963533#1 -201963533#1.120 -201963533#1.145 -201963533#0 -285549250#1 -128361102#1 128361107#0 128361107#1 449057056 378946908 128361091 379795371 378946906 128361098 -35926528#2 -35926528#1 -130185488#3 -130185488#2 -130185488#0 -136728344#5 -136728344#4 -136728344#3 -136728344#2 -136728344#0 -266561177#1 -266561177#0 -27830333#1 -27830333#0 -266561174#1 -391606911#4 -391606911#3 -391606911#2 -391606911#1 -391606911#0 -325180705#3" probability="0.19876256"/>
            <route cost="802.51" edges="77912241 32200762#5 29027840 77912237 32200414#0 -51856492#2 -29238184#1 -145069300#1 -145069300#1.112 -29458097#2 -32978638#3 -32978638#0 32021112#0 168702040#1 168702040#2 168702040#3 168702040#4 168702039#0 168702039#1 32999434#0 24693977#0 24693977#1 315392062#0 -160314346#1 -160314346#0 24634505 24634510#0 24634510#1 24634510#6 24634510#7 24634510#9 24634510#16 201238726#0 201238726#0.117 201238726#1 201238729#1 201238729#2 201238729#3 201238729#5 201238729#6 138002148 128361091 379795371 378946906 449057059 449057052 109483352#0 109483352#1 -201238725#5 -201238725#3 27998676#0 148529632#0 148529632#1 148529632#2 148529632#3 148529632#4 29353676#0 29353676#1 29353676#2 -24754837#0 -393420116#5 -393420116#4 -393420116#2 -266561174#1 -391606911#4 -391606911#3 -391606911#2 -391606911#1 -391606911#0 -325180705#3" probability="0.19215862"/>