<routes >
    <vType color="red" id="default_020" vClass="passenger"/>
    <vType color="blue" id="random_020" vClass="passenger"/>
    <vehicle arrivalPos="68.58" arrivalSpeed="0.00" depart="66605.00" departPos="16.13" id="h585c1:1" type="default_020">
        <routeDistribution last="3">
            <route cost="2037.82" edges="144659489 24762523#0 24762523#1 31773007 77670297#0 52572753#0 52572753#2 -32924041#3 145069323#0 32230349#0 25122830#0 -32061928#1 18909063#0 18909063#1 -36689751#2 10425609#0 10425609#1 201963537#1 -164051413 -653473569#5 -653473569#4 -653473569#2 -653473569#1 -653473569#0 -653473568#1 -653473568#0 -18813598#8 -18813598#7 -18813598#6 -18813598#1 18809673#0 23621955#0 23621955#2 23621955#3 23621955#6 23621955#8 23621955#10 42487766#0 201201940#0 201201940#3 128361093#0 449057060 35926529 449057056 60931370 213252671#0 128361109#0 128361109#1 128361109#3 128361109#4 201238719#0 170018165#0 -224892361#8 -224892361#6 -224892361#2 -224892361#1 286646456#1 315358255#0 -315358257#2 -315358257#0.26 25117391#0 25117391#2 -201950259#6 -201950259#3 26677214#0 26677214#3 54169231#0 54169231#1 54169231#2 26677216#1 26677216#2 -53396619#6 -53396619#5 -201950247#3 -201950247#2 -201950247#1" probability="0.40306974"/>
            <route cost="7631.70" edges="144659489 28268963 28268964 32200762#2 -144659492#4 -144659492#0 32020916#0 -105482066 -108310253 -29458096 -51856495#2 -29458097#2 -32978638#3 -32978638#0 32021112#0 168702040#1 168702040#2 168702040#3 168702040#4 -315358253#3 -315358253#2 -315358253#1 -315358253#0 -315358248#1 -315358245 -202092675.36 -4942389#1 -4942389#0 -136436466 -315358251#1 -315358251#0 -201950247#8 -201950247#7 -201950247#6 -201950247#5 -201950247#4 -201950247#3 -201950247#2 -201950247#1" probability="0.34326749"/>
            <route cost="13628.29" edges="144659489 24762523#0 24762523#1 31773007 77670297#0 52572753#0 52572753#2 -32924041#3 -108310252 -108310253 -29458096 -51856495#2 -29458097#2 -32978638#3 -32978638#0 32021112#0 168702040#1 168702040#2 -24608846#1 -24608846#0 160314345#6 24978943#0 42745545#2 47316353 -25665446#2 -53898183 47316356 54169280#3 54169280#4 54169280#6 272042143 23166741#0 -40888350 -201950247#6 -201950247#5 -201950247#4 -201950247#3 -201950247#2 -201950247#1" probability="0.13921144"/>
            <route cost="12155.33" edges="144659489 28268963 28268964 32200762#2 32200762#3 32200762#5 29027840 77912237 32200414#0 29027839#0 29027839#2 31343367#0 -24972185#9 -24972185#8 -24972185#8.373 -24972185#1 -32978638#3 -32978638#0 32021112#0 168702040#1 168702040#2 168702040#3 168702040#4 -315358253#3 -315358253#2 -315358253#1 -315358253#0 -315358248#1 -315358245 -202092675.36 -4942389#1 -4942389#0 -136436466 -315358251#1 -315358251#0 -315358242#2 -315358242#1 -315358242#0 -129379925 -40888351#6 -40888351#2 40888354#0 40888354#1 40888354#2 53396619#3 53396619#4 -201950247#3 -201950247#2 -201950247#1" probability="0.08516781"/>
            <route cost="12985.06" edges="144659489 24762523#0 24762523#1 31773007 77670297#0 77670297#1 32020916#0 77912233 32200416 29027840 77912237 32200414#0 29027839#0 29027839#2 31343367#0 -24972185#9 -24972185#8 -24972185#8.373 -24972185#1 -32978638#3 -32978638#0 32021112#0 168702040#1 168702040#2 168702040#3 168702040#4 -315358253#3 -315358253#2 -315358253#1 -315358253#0 -315358248#1 -315358245 -202092675.36 -4942389#1 -4942389#0 -136436466 386687242 23166741#0 -40888350 -201950247#6 -201950247#5 -201950247#4 -201950247#3 -201950247#2 -201950247#1" probability="0.02928352"/>
        </routeDistribution>
    </vehicle>
    <vehicle arrivalPos="99.93" arrivalSpeed="0.00" depart="66605.00" departPos="57.38" id="h14588c1:3" type="default_020">
        <routeDistribution last="0">
            <route cost="3973.37" edges="25145014#1 25187891 233675413#0 233675413#1 22716069#0 22716069#1 22716069#2 653473569#2 653473569#3 653473569#5 164051413 104010475#0 104012170 -32124745 -32124743 -32124744 -201089423#2 22716549#0 24634509#0 24634507 24634508 -24693977#1 -24693977#0 -32999434#1 -24634414#5 -24634414#4 -24634414#3 24634416 315358253#1 315358253#2 315358253#3 402600768#0 402600768#1 51857517#0 51857517#0.33 51857517#1 51857518#1 32978638#0 32978638#1 24972185#0 24972185#2 24972185#2.111 24972185#9 24537982#0 24537982#2 24537982#3 24537982#4 266565302 380273343 -233673425#1 -233673425#0 -266567307#1 -30404124 30417892 266567308#0 64464384#1 32009827 266567303 24971737#0 24971737#3 -32199989#1 -32199989#0 -32199969#5 -32199969#4 -32199969#1 -164051410#1 -164051410#0 24977473#0 54154922#0 54154922#1 26071515#0 26071515#1 4324820 26471940#0 -164051438#2 -164051438#1 -164051438#0 -164051438#0.46 -164051438#0.62 -26471933 140834262#0 201953161#0 201953161#7 201953163#0 140834254#0 140834270#0 140834270#2 140834254#11 -201956816#0" probability="0.99837892"/>
            <route cost="45960.44" edges="25145014#1 25187891 233675413#0 233675413#1 22716069#0 22716069#1 22716069#2 -653473569#1 -25149001#5 -25149001#4 25190140#0 -173167517 -25141430#0 -41051113#1 -25141428#2 -25141428#1 -25141428#0 25136980#9 -25149251#1 -25149251#0 173169611#4 25171366#0 25171366#1 25171366#2 25076787#1 -23442105#0 -151167738#2 -151167738#1 136728366#1 136728351#0 136728351#1 -201969576#1 -201969576#0 -61940355 -24495188 -29458641 -61940356 29458640#0 172517196 -38508400#1 gneE20 33779209#1 151167768#1 200946853 54033673#0 54033673#0.28 54033673#2 54033673#3 29458645 29458645.65 29458645.81 201278214#0 201278216#0 29458647#0 37282369 354967544#0 354967544#1 354967544#2 4268816#0 4268816#1 -201953160#4 -201953160#1 -140834255#1 201953161#0 201953161#7 201953163#0 140834254#0 140834254#1 140834254#7 140834254#8 140834254#9 140834254#10 140834254#11 -201956816#0" probability="0.00146254"/>
            <route cost="332857.63" edges="25145014#1 25187891 233675413#0 233675413#1 22716069#0 22716069#1 22716069#2 653473569#2 653473569#3 653473569#5 164051413 124812857#0 201956811#0 36689751#0 33102476 18909064 gneE3 103512667#0 103512667#1 103512667#2 32234776#0 32226141#0 358042226 52513194 300750369#0 145069325#0 145069384 37649448#0 37649448#1 145069394#0 145069394#1 145069391 145069373#0 145069294#0 32201042 32201044#0 32201044#1 32201044#2 233673423 28418763 -379723624#1 -379723624#0 -32923867#4 -32923867#3 -32923867#2 -32923867#1 -32923867#0 130996520 130996520.58 172519650 356952270 54033673#0 54033673#0.28 54033673#2 54033673#3 29458645 29458645.65 29458645.81 201278214#0 201278216#0 29458647#0 37282369 354967544#0 354967544#1 354967544#2 4268816#0 4268816#1 -201953160#4 -201953160#1 -140834255#1 201953161#0 201953161#7 201953163#0 140834254#0 140834270#0 140834270#2 140834254#11 -201956816#0" probability="0.00013885"/>
            <route cost="166544.83" edges="25145014#1 25187891 -136728347#4 -201963533#5 -201963533#4 -201963533#1 -201963533#1.120 -201963533#1.145 -201963533#0 10427692#0 10427692#2 10427692#3 10427692#4 10427692#5 10427692#6 10427692#7 10427692#7.50 10427692#8 -24634510#18 -24634510#15 -24634510#8 -24634510#6 -138300620#6 176550249#3 176550249#4 201201950#0 201201950#1 201201950#2 201201950#3 201201950#4 386687239#0 386687239#1 28361235#0 202092675 315358245.27 315358248#0 315358253#0 315358253#1 315358253#2 315358253#3 402600768#0 402600768#1 51857517#0 51857517#0.33 51857517#1 51857516#1 -266565295#5 -266565295#4 -266565295#3 -266565295#2 -266565295#1 -266565295#0 -266565299 -24977590#1 -24977590#0 -233673425#1 -233673425#0 -266567307#1 -30404124 30417892 64464397#0 64464432#2 -24991571 -24991573 -11014139#1 145069303#0 145069303#1 145069303#2 145069303#4 -26973015 24983010#0 24983010#1 161678033#0 -32350852#4 -32350852#3 -32350852#1 -28418764#2 -28418764#1 -28418764#0.88 -28418764#0.109 -542617943 -389831364 -102818928#1 -102818928#0 -102818928#0.78 -61940355 -24495188 -29458641 -61940356 29458640#0 172517198#0 356952270 54033673#0 54033673#0.28 54033673#2 54033673#3 29458645 29458645.65 29458645.81 201278214#0 201278216#0 29458647#0 37282369 354967544#0 354967544#1 354967544#2 4268816#0 4268816#1 -201953160#4 -201953160#1 -140834255#1 201953161#0 201953161#7 201953163#0 140834254#0 140834270#0 140834270#2 140834254#11 -201956816#0" probability="0.00001891"/>
            <route cost="34393.26" edges="25145014#1 25145014#2 -25209894#1 -25209894#0 -28111977#7 -28111977#6 -26642362#0 -25136986 18813598#7 -25190140#2 -25190140#1 -173167517 -25141430#0 -41051113#1 -25141428#2 -25141428#1 -25141428#0 25136980#9 -25149251#1 -24614922#3 -24614922#2 -24614922#1 -138300621#0 -38305646#1 -38305646#0 -23442105#4 26809976#0 26809976#1 -23442105#1 -23442105#0 -151167738#2 -151167738#1 -151167738#0 -201969576#5 -201969576#4 -201969576#1 -201969576#0 -61940355 -24495188 -29458641 -61940356 29458640#0 172517196 -38508400#1 gneE20 33779209#1 174321447 58295043 -39443316#2 -39443315#0 -27893434#0 -23184317 168245119#0 -20975950#0 -37282688#1 29458100#0 201278216#0 29458647#0 37282369 354967544#0 354967544#1 354967544#2 -266887590#1 -266887590#0 -589179144 118004640#0 461125446#0 461125445 208010459#1 -201953160#1 -140834255#1 201953161#0 201953161#7 201953163#0 140834254#0 140834270#0 140834270#2 140834254#11 -201956816#0" probability="0.00000077"/>
        </routeDistribution>
    </vehicle>
    <vehicle arrivalPos="12.93" arrivalSpeed="0.00" depart="66616.00" departPos="20.35" id="h20816c2:5" type="default_020">
        <routeDistribution last="0">
            <route cost="12044.59" edges="60066780 25640099 -25597196#2 -25597196#1 42745460 42745461#0 42745461#1 54154922#0 54154922#1 26071515#0 26071515#1 4324820 164051399 201956817 33279254#1 556434727 542630099 354967545#0.45 354967545#1 141058765#0 141058765#1 141058765#2 141058765#2.33 31624236#0 172700927#0 -48742425#2 -48742425#1 -48742425#0 -205182378#15 -205182378#14 -205182378#13 -20975943#2 -20975943#1 -20975943#0 -20975948#0 23184317 29458101 27893434#1 27893434#2 -33779209#2 gneE19 -174609517#3 -33814393#3 -33814393#1 -33814393#0 -391208988 26339462#0 201933880#0 201933880#3 26339468#0 26339468#2 -26814848#3 26339473#1 26339470" probability="0.90066938"/>
            <route cost="9879.85" edges="60066780 110435734 -24978651 28132014#0 28132014#1 42745460 42745461#0 42745461#1 54154922#0 54154922#1 26071515#0 26071515#1 4324820 164051399 201956817 33279254#1 556434727 542630099 354967545#0.45 354967545#1 -266887590#1 -266887590#0 -589179144 -266887589#2 -201926268#1 -266887588#1 -266887588#0 -266887593#6 20266190#0 20266190#2 -72883541#0 30054829#0 -201926265#4 589179136 -20405617#0 20588624#1 20588624#2 205182378#7 205182378#8 -28269810#6 -28269810#4 -28269810#3 -28269810#2 -28269810#1 -163586462 -4819338#4 -4819338#3 -4819338#1 -4819338#0 266607803#0 266607803#1 266607803#2 266607792#0 266607792#5 200949176#0 200949176#1 116765451#0 116765451#3 390835794#0 -26339478#5 -26339478#3 -26339478#2 26339470" probability="0.30892808"/>
            <route cost="53036.90" edges="60066780 -25640097#1 -25640097#0 25640093#7 -115082348#2 110435735 -137463475#1 137463477#0 305390325#0 25797295#0 -201444272#0 30404130#0 30404130#1 64464420 25955089 64464430 64464399#0 64464399#1 64464432#0 64464432#1 64464432#2 -24991571 -24991573 -11014139#1 145069303#0 145069303#1 145069303#2 145069303#4 -26973015 24983010#0 24983010#1 161678033#0 -32350852#4 -32350852#3 -32350852#1 -28418764#2 -28418764#1 -28418764#0.88 -28418764#0.109 -542617943 -389831364 -102818928#1 -102818928#0 -102818928#0.78 -61940355 -24495188 -29458641 -61940356 29458640#0 172517196 -38508400#1 -174609517#3 -33814393#3 -33814393#1 -33814393#0 -391208988 26339462#0 201933880#0 201933880#3 26339468#0 26339468#2 -26814848#3 26339473#1 26339470" probability="0.00017943"/>
            <route cost="463004.12" edges="60066780 110435734 115082348#0 115082348#1 115082348#3 115082348#4 257907858#0 27202149 202070427#0 25796375#0 25796375#1 25796375#2 25638527 32202927#0 32202927#1 32202927#2 137463478#2 29238187#0 29238187#1 29238187#2 29027727#4 29027727#6 29027727#7 29027727#9 152077572#0 152077572#2 152077572#2.79 54858974 4942408 54858973#0 54858973#0.62 54858973#1 54858973#2 29119849#0 29119849#1 29119850 29119850.70 30399662#0 30399662#1 -148050455#2 -148050455#1 148050452#0 148050451#0 266565295#3 266565295#4 266565295#5 32999435 32124637#0 32124637#1 51857518#1 32978638#0 32978638#1 29458097#0 51856495#0 29458096 108239938 104236369 108310250 29119898 145069331#0 145069287#0 145069287#0.136 103512667#1 103512667#2 32234776#0 32226141#0 358042226 52513194 300750369#0 145069325#0 145069384 37649448#0 37649448#1 145069394#0 145069394#1 145069391 145069373#0 145069294#0 32201042 32201044#0 32201044#1 32201044#2 233673423 28418763 -379723624#1 -379723624#0 -32923867#4 -32923867#3 -32923867#2 -32923867#1 -32923867#0 130996520 130996520.58 172519650 306396705 174321447 58295043 32923863#2 266607804#0 266607804#1 266607804#2 266607803#0 266607803#1 266607803#2 266607792#0 266607792#5 200949176#0 200949176#1 116765451#0 116765451#3 390835794#0 -26339478#5 -26339478#3 -26339478#2 26339470" probability="0.00000000"/>
            <route cost="2516.73" edges="60066780 25640099 -25597196#2 -25597196#1 42745460 42745461#0 42745461#1 54154922#0 54154922#1 26071515#0 26071515#1 4324820 164051399 201956817 33279254#1 556434727 542630099 354967545#0.45 354967545#1 -25188983#1 -25188983#0 -354967514#2 -168243629#2 -168243629#1 141058765#2 141058765#2.33 103718178 -201278216#1 -201278214#1 -29458645 -29458645.13 -29458645.28 131118468#0 131118468#0.16 131118468#1 131118468#3 131118468#4 305390335 201278218#0 306396705 -33779209#2 gneE19 -174609517#3 -33814393#3 -33814393#1 -33814393#0 -391208988 26339462#0 201933880#0 201933880#3 26339468#0 26339468#2 -26814848#3 26339473#1 26339470" probability="0.34206477"/>
        </routeDistribution>
    </vehicle>
    <vehicle arrivalPos="0.00" arrivalSpeed="0.00" depart="66619.00" departPos="85.59" id="h9380c1:1" type="default_020">
        <routeDistribution last="1">
            <route cost="102408.85" edges="153692837#1 -25596855#0 -25596974#0 -41139095 -25596851#6 -25596851#5 -25596851#4 -151167720#1 -151167720#0 201789799#2 201789798#0 201789798#1 202070435#0 202070435#1 202070435#2 202070435#5 202070435#5.37 202070435#5.70 202070435#9 202070435#12 202070435#13 40059576#0 -157305700#5 -157305700#3 -157305700#2 -157305700#1 -157305700#0 -306793671 -39577538 39577537 306793670#1" probability="0.32329526"/>
            <route cost="106573.12" edges="153692837#1 153692837#2 gneE134 -481432711 -41139095 -25596851#6 -25596851#5 -25596851#4 -25596851#3 -25596851#2 -25596851#1 -25596851#0 201880159#1 201880159#2 201789796#0.31 201789796#1 30320943 378466167 266507548 32976755 327975020 327975024 327975024.20 327975024.51 327975019 28132017 32976751 32976751.35 306793670#0 306793670#1" probability="0.32328988"/>
            <route cost="116833.48" edges="153692837#1 153692837#2 153692837#3 -25597196#6 -25597196#5 -25597196#4 -25380714#1 -201926266 -54154921#3 -54154921#2 54154922#0 54154922#1 26071515#0 26071515#1 4324820 164051399 201956817 33279254#1 556434727 542630099 354967545#0.45 354967545#1 141058765#0 141058765#1 141058765#2 141058765#2.33 31624236#0 172700927#0 -48742425#2 -20588641#4 -20588641#0 -201926269#1 20266191 -20266190#1 -266887593#3 -266887591 -141058757 111525330#0 350320331#0 266885723#0 161680739 27453586#0 39970992#0 39970992#1 266885718#0 266885718#1 266885720 32930763 32930762 266507537 27454740 27454730 146973176#0 146973176#1 -195073416 195073423 32976751 32976751.35 306793670#0 306793670#1" probability="0.18811728"/>
            <route cost="105948.63" edges="153692837#1 -25596855#0 25596974#1 -25640093#2 25597372 202070429#6 202070429#7 201789794#0 201789794#3 308849647 266507550 30320943 378466167 266507548 32976755 327975020 327975024 327975024.20 327975024.51 327975019 28132017 32976751 32976751.35 306793670#0 306793670#1" probability="0.08607976"/>
            <route cost="100238.51" edges="153692837#1 153692837#2 153692837#3 153692837#4 153692837#5 30482638#9 30482638#10 30482638#11 30482638#12 201789799#0 201789799#1 201789799#2 201789798#0 201789798#1 202070435#0 202070435#1 202070435#2 202070435#5 202070435#5.37 202070435#5.70 202070435#9 202070435#12 202070435#13 40059576#0 -157305700#5 -157305700#3 -157305700#2 -157305700#1 -157305700#0 -306793671 -39577538 39577537 306793670#1" probability="0.07921781"/>
        </routeDistribution>
    </vehicle>
    <vehicle arrivalPos="71.02" arrivalSpeed="0.00" depart="66629.00" departPos="27.41" id="h9581c2:3" type="default_020">
        <routeDistribution last="2">
            <route cost="5898.18" edges="-32924041#3 -108310252 32230724 77912233 32200416 29027840 77912237 32200414#0 -51856492#2 -29238184#1 -145069300#1 -145069300#1.112 -29458097#2 24972185#0 24972185#2 24972185#2.111 24972185#9 24537982#0 24537982#2 24537982#3 24537982#4 266565302 380273343 -233673425#1 -233673425#0 -266567307#1 -30404124 30417892 266567308#0 64464384#1 32009827 266567303 24971737#0 24971737#3 -32199989#1 -32199989#0 -32199969#5 -32199969#4 -32199969#1 -164051410#1 -164051410#0 24977473#0 54154921#0 54154921#3 201926266 30482638#0 -25595895#1 153692841#0 -25595931 25597196#6" probability="0.65132107"/>
            <route cost="45833.56" edges="-32924041#3 -108310252 -108310253 -29458096 -27825654#6 145069300#1 29238184#0 51856492#0 29027839#0 29027839#2 31343367#0 29048562#0 145069303#0 145069303#1 145069303#2 145069303#4 -26973015 24983010#0 24983010#1 161678033#0 51857519#0 161678034#0 161678034#1 161678034#2 161678034#2.30 161678034#2.46 24970784#0 164051410#0 24989879 42745460 42745461#0 42745461#1 54154921#0 54154921#3 201926266 25380714#0 25597196#4 25597196#5 25597196#6" probability="0.19740224"/>
            <route cost="40326.71" edges="-32924041#3 -108310252 -108310253 -29458096 -51856495#2 -29458097#2 24972185#0 24972185#2 24972185#2.111 24972185#9 29048562#0 145069303#0 145069303#1 145069303#2 145069303#4 -26973015 24983010#0 24983010#1 161678033#0 51857519#0 161678034#0 161678034#1 161678034#2 161678034#2.30 161678034#2.46 164051429#0 164051429#1 10425611#0 10425611#0.83 10425611#1 203971380 37480109 90587320 90587320.64 201926266 30482638#0 -25595895#1 -25595895#0 25597196#5 25597196#6" probability="0.15053170"/>
            <route cost="320801.57" edges="-32924041#3 145069323#0 145069342#0 35926319#1 104236369 108310250 29119898 145069331#0 145069287#0 145069287#0.136 103512667#1 103512667#2 32234776#0 32226141#0 358042226 52513194 300750369#0 145069325#0 145069384 37649448#0 37649448#1 145069394#0 145069394#1 145069391 145069373#0 145069294#0 32201042 32201044#0 32201044#1 32201044#2 233673423 28418763 -379723624#1 -379723624#0 -32923867#4 -32923867#3 -32923867#2 -32923867#1 -32923867#0 130996520 130996520.58 172519650 356952270 54033673#0 54033673#0.28 54033673#2 54033673#3 29458645 29458645.65 29458645.81 201278214#0 201278216#0 29458647#0 37282369 354967544#0 354967544#1 354967544#2 4268816#0 4268816#1 201956818#1 201956818#2 201956818#5 164051398 25188982#0 25192758 203971378#0 37480109 90587320 90587320.64 201926266 30482638#0 -25595895#1 153692841#0 -25595931 25597196#6" probability="0.00047996"/>
            <route cost="42763.50" edges="-32924041#3 -108310252 32230724 77912233 32200416 29027840 77912237 32200414#0 29027839#0 29027839#2 31343367#0 29048562#0 145069303#0 145069303#1 145069303#2 145069303#4 -26973015 24983010#0 24983010#1 161678033#0 51857519#0 161678034#0 161678034#1 161678034#2 161678034#2.30 161678034#2.46 164051429#0 164051429#1 10425611#0 10425611#0.83 10425611#1 203971380 -203971378#1 -25192758 90587321#0 203971379#1 -54154922#1 -54154922#0 54154921#0 54154921#3 201926266 30482638#0 -25595895#1 153692841#0 -25595931 25597196#6" probability="0.00026502"/>
        </routeDistribution>
    </vehicle>
    <vehicle arrivalPos="63.43" arrivalSpeed="0.00" depart="66636.00" departPos="42.20" id="h3798c1:1" type="default_020">
        <routeDistribution last="0">
            <route cost="3494.31" edges="24634413#2 37386279 -24634414#4 -24634414#3 -24634414#2 -24634414#1 -24634414#0 23166741#2 -26677216#4 -26677216#2 -26677216#1 -26677216#0 26677214#5 -26677542#1 -26677542#0 201950263#7 129379967#0 -315358250#1 -315358250#0 -379897806 -164078530 -315358244 -129379923 -315358243 -164078531#2 -164078531#1 -164078531#0 -164078531#0.84 -156788416#1 -627181818#1 -627181818#0 -32061997#2 -32061997#0 -542769276#1 -136618613#1 -136618613#0 -35744086#2 -126909938 -614568192 -126909931 -126909931.208 -25508272#0 gneE152 gneE151 gneE151.97 192768907 202089408#0 202089408#1 198768615#0 128668757" probability="0.62978297"/>
            <route cost="11656.67" edges="24634413#2 37386279 -24634414#4 -24634414#3 24634416 -315358253#0 -315358248#1 -315358245 -202092675.36 -4942389#1 -4942389#0 -136436466 -315358251#1 -315358251#0 -315358242#2 -315358242#1 -315358242#0 -129379925 -129379918#1 -315358252#1 -129379922 -315358246 -129379920#1 -129379920#0 -129379921#1 -129379921#0 -315358250#1 -315358250#0 -379897806 -164078530 -315358244 -129379923 -315358243 -164078531#2 -164078531#1 -164078531#0 -164078531#0.84 -156788416#1 -627181818#1 -627181818#0 -32061997#2 -32061997#0 -542769276#1 -136618613#1 -136618613#0 -35744086#2 -126909938 -614568192 -126909931 -126909931.208 -25508272#0 gneE152 gneE151 gneE151.97 192768907 202089408#0 202089408#1 198768615#0 128668757" probability="0.22540507"/>
            <route cost="58904.89" edges="24634413#2 37386279 -24634414#4 -24634414#3 -24634414#2 -160314345#2 -160314345#1 -160314345#0 201238718#0 201238718#1 201238718#2 174800513 201201945#0 201201945#1 201201945#2 201201945#3 201201945#7 201201945#8 201089420#0 315358257#0 315358257#0.43 -315358254#1 -164078536 -320733909#2 -320733909#0 -320733910#1 -23622271#6 -23622271#5 -23622271#1 -42738709#1 -42738709#0.161 -42738708 -35744086#2 -126909938 -614568192 -126909931 -126909931.208 -25508272#0 gneE152 gneE151 gneE151.97 192768907 202089408#0 202089408#1 198768615#0 128668757" probability="0.12687053"/>
            <route cost="61899.55" edges="24634413#2 37386279 -24634414#4 -24634414#3 24634416 -315358253#0 -315358248#1 -160314345#4 -160314345#3 -160314345#2 -160314345#1 -160314345#0 201238718#0 201238718#1 201238718#2 174800513 201201953#0 40888360#0 22724699#2 22724699#3 22724699#7 137132998 201143840 201234440 -379510292 -28319300#2 201089420#0 315358257#0 315358257#0.43 -315358254#1 -164078536 -320733909#2 -320733909#0 -320733910#1 -23622271#6 -23622271#5 -23622271#1 -42738709#1 -42738709#0.161 -42738708 -35744086#2 -126909938 -614568192 -126909931 -126909931.208 -25508272#0 gneE152 gneE151 gneE151.97 192768907 202089408#0 202089408#1 198768615#0 128668757" probability="0.01617421"/>
            <route cost="75747.22" edges="24634413#2 37386279 -24634414#4 -24634414#3 -24634414#2 -24634414#1 -24634414#0 23166741#2 23166741#5 201201945#0 201201945#1 -136436468#2 26677213#0 201950259#0 201950259#4 -25117391#2 -25117391#1 315358257#0 315358257#0.43 -315358255#4 -286646456#2 -286646456#0 -224251774#1 -224251774#0 224251776#0 306240162#0 306240162#4 148352067 77414810#0 138396239#1 77414807#0 -137672872 -611319827 -42738709#1 -42738709#0.161 -42738708 -35744086#2 -126909938 -614568192 -126909931 -126909931.208 -25508272#0 gneE152 gneE151 gneE151.97 192768907 202089408#0 202089408#1 198768615#0 128668757" probability="0.00176722"/>
        </routeDistribution>
    </vehicle>
    <vehicle arrivalPos="78.33" arrivalSpeed="0.00" depart="66638.00" departPos="112.70" id="h11701c1:3" type="default_020">
        <routeDistribution last="1">
            <route cost="25926.47" edges="145069347#0 103512667#0 -145069287#7 -145069287#7.50 145069328 145069363#0 145069272 145069362#0 107677354#1 77670297#0 77670297#1 32020916#0 77912233 32200416 29027840 77912237 32200414#0 29027839#0 29027839#2 31343367#0 29048562#0 11014139#0 24991573 24991571 64464405 266567306 64464408 64464384#1 32009827 266567303 266567294#0 25797090#1 201444272#0 201444272#1 24846867#0 25665370#0 -29238187#1 -29238187#0 -25797433#3 -25797433#2 -25797433#1 -25797433#0 -144657087#3 -144657087#2 -144657087#1 61326427#0 61326427#1 32202328 -31342351#1 23009600#0 23009600#2 29205273#0 29205273#1 25616922#0 27781947#0 27781947#4" probability="0.61680099"/>
            <route cost="10122.26" edges="145069347#0 145069291#0 145069309 32084380 103396186 -103512667#1 -103512667#0 -145069347#2 25122830#0 32061928#2 32061928#4 32061928#5 389840420#3 24972185#0 24972185#2 24972185#2.111 24972185#9 24537982#0 24537982#2 24537982#3 24537982#4 266565302 380273343 -233673425#1 -233673425#0 -266567307#1 -30404124 30417892 266567308#0 64464384#1 32009827 266567303 266567294#0 31342064#1 31342064#1.83 25902677#0 137463474#0 25797315#0 25797315#1 -25797433#1 -25797433#0 26176222#0 26176222#1 33280103#4 33280103#4.68 4942575#0 4942575#1 -27761238#7 27781947#4" probability="0.34708966"/>
            <route cost="191340.42" edges="145069347#0 103512667#0 103512667#1 103512667#2 32234776#0 32226141#0 358042226 52513194 300750369#0 145069325#0 145069384 37649448#0 37649448#1 145069394#0 145069394#1 145069391 145069373#0 -24982688#4 -24982688#2 -24982688#1 -24982688#1.52 -145069366#3 -145069366#2 32350852#0 32350852#3 32350852#4 51857519#0 161678034#0 161678034#1 161678034#2 161678034#2.30 161678034#2.46 24970784#0 164051410#0 164051410#1 32199969#0 32199969#2 32199969#5 32199989#0 32199989#1 323248156#0 31342064#1 31342064#1.83 25902677#0 137463474#0 137463474#1 -25796964#0 -32202927#0 -25638527 -25796375#2 -25796375#1 -25796375#0 202070427#1 202070427#2 33280103#0 33280103#1 33280103#2 33280103#3 33280103#4 33280103#4.68 4942575#0 4942575#1 -27761238#7 27781947#4" probability="0.02350561"/>
            <route cost="62667.32" edges="145069347#0 103512671 -33102477 18909061#0 389831363#0 32061928#2 32061928#4 32061928#5 389840420#3 24972185#0 24972185#2 24972185#2.111 24972185#9 29048562#0 145069303#0 145069303#1 145069303#2 145069303#4 -26973015 24983010#0 24983010#1 161678033#0 51857519#0 161678034#0 161678034#1 161678034#2 161678034#2.30 161678034#2.46 24970784#0 164051410#0 24989879 -28132014#2 -28132014#0 -116765457#1 -116765457#0 -137463475#1 137463477#0 25902677#0 137463474#0 137463474#1 -25796964#0 -32202927#0 -25638527 25796388 gneE147 -71900674#2 -71900674#1 -71900674#0 33280103#1 33280103#2 33280103#3 33280103#4 33280103#4.68 4942575#0 4942575#1 -27761238#7 27781947#4" probability="0.01040178"/>
            <route cost="45242.91" edges="145069347#0 145069291#0 145069309 32084380 103396186 -103512667#1 -145069287#7 -145069287#7.50 32230348 145069342#0 35926319#1 -108310253 -29458096 -51856495#2 -29458097#2 24972185#0 24972185#2 24972185#2.111 24972185#9 29048562#0 11014139#0 24991573 24991571 64464405 266567306 64464408 64464384#1 32009827 266567303 266567294#0 25797090#1 201444272#0 201444272#1 201444272#3 29027727#0 29027727#4 25665374 -29238188#0 -274823622#10 -274823622#7 -274823622#3 -274823622#2 -274823622#1 -61326427#0 -144657087#0 31342350#1 31342350#2 31342350#2.130 97304242#0 97304242#2 97304242#4 97304242#5 -27781907#1 -27781907#0 27761238#5 27761238#6 27781947#4" probability="0.00220196"/>
        </routeDistribution>
    </vehicle>
    <vehicle arrivalPos="49.55" arrivalSpeed="0.00" depart="66644.00" departPos="34.48" id="h4112c1:1" type="default_020">
        <routeDistribution last="0">
            <route cost="23021.00" edges="-165520703#4 -24989986 165520706 380273341 140684001 24977590#0 24977590#1 266565299 266565295#0 266565295#1 266565295#2 266565295#3 266565295#4 266565295#5 32999435 29236658#2 -24608844 -160314345#6 -160314345#5 -315358245 -202092675.36 -4942389#1 -4942389#0 -136436466 -315358251#1 -315358251#0 -315358242#2 -315358242#1 -315358242#0 -129379925 -129379918#1 -315358252#1 -129379922 -315358246 -129379920#1 -129379920#0 -129379921#1 -129379921#0 -315358250#1 -315358250#0 -379897806 -164078530 -315358244 -129379923 -315358243 -164078531#2 -164078531#1 -164078531#0 -164078531#0.84 -156788416#1 -627181818#1 -627181818#0 -32061997#2 -32061997#0 -542769276#1 -136618613#1 -136618613#0 -35744086#2 -126909938 -614568192 -126909931 -126909931.208 -25508272#0 gneE152 gneE151 gneE151.97 192768907 202089408#0 202089408#1 198768615#0 128668757" probability="0.69613363"/>
            <route cost="5809.86" edges="-165520703#4 -24989986 165520706 140684000#0 140684000#1 203127020#0 200741048 248012814 29119850 29119850.70 30399326#0 -137246371#2 -137246371#1 -138002149#2 -138002149#1 -138002149#0 -25316932#4 -10425532#5 -447569998#1 -447569997#0 -315358252#1 -129379922 -315358246 -129379920#1 -129379920#0 -129379921#1 -129379921#0 -315358250#1 -315358250#0 -379897806 -164078530 -315358244 -129379923 -315358243 -164078531#2 -164078531#1 -164078531#0 -164078531#0.84 -156788416#1 -627181818#1 -627181818#0 -32061997#2 -32061997#0 -542769276#1 -136618613#1 -136618613#0 -35744086#2 -126909938 -614568192 -126909931 -126909931.208 -25508272#0 gneE152 gneE151 gneE151.97 192768907 202089408#0 202089408#1 198768615#0 128668757" probability="0.29926214"/>
            <route cost="88321.31" edges="-165520703#4 -24989986 165520706 380273341 140684001 24977590#0 24977590#1 266565299 266565295#0 266565295#1 266565295#2 266565295#3 25955175#0 24608842#0 24608842#1 -160314345#6 -160314345#5 -160314345#4 -160314345#3 -160314345#2 -160314345#1 -160314345#0 201238718#0 201238718#1 201238718#2 174800513 201201945#0 201201945#1 201201945#2 201201945#3 201201945#7 201201945#8 201089420#0 315358257#0 315358257#0.43 -315358254#1 -164078536 -320733909#2 -320733909#0 -320733910#1 -23622271#6 -23622271#5 -23622271#1 -42738709#1 -42738709#0.161 -42738708 -35744086#2 -126909938 -614568192 -126909931 -126909931.208 -25508272#0 gneE152 gneE151 gneE151.97 192768907 202089408#0 202089408#1 198768615#0 128668757" probability="0.00350484"/>