<routes >
    <vType color="red" id="default_006" vClass="passenger"/>
    <vType color="blue" id="random_006" vClass="passenger"/>
    <vehicle arrivalPos="0.00" arrivalSpeed="0.00" depart="27754.00" departPos="0.81" id="h8986c2:1" type="default_006">
        <routeDistribution last="1">
            <route cost="100734.97" edges="-25597196#3 -25597196#2 -25597196#1 42745460 42745461#0 42745461#1 54154922#0 54154922#1 26071515#0 26071515#1 4324820 164051399 201956817 33279254#1 556434727 542630099 354967545#0.45 354967545#1 141058765#0 141058765#1 141058765#2 141058765#2.33 103718178 -201278216#1 -201278214#1 -29458645 -29458645.13 -29458645.28 131118468#0 131118468#0.16 131118468#1 131118468#3 131118468#4 305390335 172515813 201278215 305390333 172515812#0 172517196 -38508400#1 -174609517#3 -33814393#3 -33814393#1 -33814393#0 -391208988 -40623117#2 -51244813#8 -51244813#7 -26416599 -26416600#2 -26339463#4 201933881#6 26356922#0 26356922#2 25375770#6 25375770#10 25375770#11 25375770#12 26450419#2 26450419#3 55691388#0 55691388#1 55691387 26346716#0 201950260 306431423#0 306431423#1 61738383 61738382#0 54606430 54606427#0 54606427#1 54606422#0 54606422#1 54606422#3" probability="0.20148937"/>
            <route cost="100700.68" edges="-25597196#3 -25597196#2 -25597196#1 42745460 42745461#0 42745461#1 54154922#0 54154922#1 26071515#0 26071515#1 4324820 164051399 201956817 33279254#1 556434727 542630099 354967545#0.45 354967545#1 141058765#0 141058765#1 141058765#2 141058765#2.33 31624236#0 172700927#0 -48742425#2 -48742425#1 -48742425#0 -205182378#15 -205182378#14 -205182378#13 -20975943#2 20975954#1 -28269810#3 -28269810#2 -28269810#1 -163586462 -4819338#4 -4819338#3 -4819338#1 -4819338#0 266607803#0 266607803#1 266607803#2 266607792#0 266607792#5 200949176#0 200949176#1 116765451#0 116765451#3 390835794#0 390835794#1 266607799 26339624#0 26339624#2 26339623#5 -71809618#3 -71809618#2 -28577490#3 -28577490#2 -28577490#1 -28577490#0 -138265826#12 -138265826#11 391208993#0 391208993#1 391208993#2 391208993#3 391208993#4 391208993#5 -391208987#1 -391029003 -155847374#2 -155847374#0 -26346717#3 -26346717#2 -26346717#1 -26346717#0 306431424 306431421 306431423#0 306431423#1 61738383 61738382#0 54606430 54606427#0 54606427#1 54606422#0 54606422#1 54606422#3" probability="0.19987425"/>
            <route cost="100720.44" edges="-25597196#3 -25597196#2 -25597196#1 42745460 42745461#0 42745461#1 54154922#0 54154922#1 26071515#0 26071515#1 4324820 164051399 201956817 33279254#1 556434727 542630099 354967545#0.45 354967545#1 141058765#0 141058765#1 141058765#2 141058765#2.33 103718178 -201278216#1 -201278214#1 -29458645 -29458645.13 -29458645.28 131118468#0 131118468#0.16 131118468#1 131118468#3 131118468#4 305390335 172515813 201278215 305390333 172515812#0 172517196 -38508400#1 -174609517#3 -33814393#3 -33814393#1 -33814393#0 -391208988 -40623117#2 -51244813#8 -51244813#7 -51244813#6 -51244813#5 -51244813#5.55 -51244813#3 -51244813#0 -26341775#7 -26341775#6 -26341775#5 -26341775#3 -26341775#1 -26341775#0 -26341775#0.81 -51244816 -201559932 -51244815#3 -51244815#2 -51244815#1 -51180454#5 -51180454#2 -51180454#1 -51180454#0 26346716#0 201950260 306431423#0 306431423#1 61738383 61738382#0 54606430 54606427#0 54606427#1 54606422#0 54606422#1 54606422#3" probability="0.19977235"/>
            <route cost="100701.79" edges="-25597196#3 -25597196#2 -25597196#1 42745460 42745461#0 42745461#1 54154922#0 54154922#1 26071515#0 26071515#1 4324820 164051399 201956817 33279254#1 556434727 542630099 354967545#0.45 354967545#1 141058765#0 141058765#1 141058765#2 141058765#2.33 31624236#0 172700927#0 -48742425#2 -48742425#1 -48742425#0 -205182378#15 -205182378#14 -205182378#13 -20975943#2 20975954#1 -28269810#3 -28269810#2 -28269810#1 -163586462 -4819338#4 -4819338#3 -4819338#1 -4819338#0 266607803#0 266607803#1 266607803#2 266607792#0 266607792#5 200949176#0 200949176#1 116765451#0 116765451#3 390835794#0 390835794#1 266607799 26339624#0 26339624#2 26339623#5 -71809618#3 -71809618#2 -28577490#3 -28577490#2 -28577490#1 -28577490#0 -306431425#3 -379521569#6 -379521569#1 -379521569#0 -201950252#1 -315512845#7 -315512845#5 -315512845#3 -315512845#2 -315512845#1 -25699307#1 -51180454#5 -51180454#2 -51180454#1 -51180454#0 26346716#0 201950260 306431423#0 306431423#1 61738383 61738382#0 54606430 54606427#0 54606427#1 54606422#0 54606422#1 54606422#3" probability="0.19945109"/>
            <route cost="100695.92" edges="-25597196#3 -25597196#2 -25597196#1 42745460 42745461#0 42745461#1 54154922#0 54154922#1 26071515#0 26071515#1 4324820 164051399 201956817 33279254#1 556434727 542630099 354967545#0.45 354967545#1 141058765#0 141058765#1 141058765#2 141058765#2.33 103718178 -201278216#1 -201278214#1 -29458645 -29458645.13 -29458645.28 131118468#0 131118468#0.16 131118468#1 131118468#3 131118468#4 305390335 201278218#0 306396705 174321447 58295043 32923863#2 266607804#0 266607804#1 266607804#2 266607803#0 266607803#1 266607803#2 266607792#0 266607792#5 200949176#0 200949176#1 116765451#0 116765451#3 390835794#0 390835794#1 266607799 26339624#0 26339624#2 26339623#5 -71809618#3 -71809618#2 -28577490#3 -28577490#2 -28577490#1 -28577490#0 -138265826#12 -138265826#11 391208993#0 391208993#1 391208993#2 391208993#3 391208993#4 391208993#5 -391208987#1 -391029003 -155847374#2 -155847374#0 -26346717#3 -26346717#2 -26346717#1 -26346717#0 306431424 306431421 306431423#0 306431423#1 61738383 61738382#0 54606430 54606427#0 54606427#1 54606422#0 54606422#1 54606422#3" probability="0.19941294"/>
        </routeDistribution>
    </vehicle>
    <vehicle arrivalPos="38.36" arrivalSpeed="0.00" depart="27754.00" departPos="26.08" id="h21453c1:5" type="default_006">
        <routeDistribution last="1">
            <route cost="454.17" edges="103687353 32200983#0 32200983#3 24982688#0 24982688#0.12 24982688#2 29002614 32201042 32201044#0 32201044#1 32201044#2 233673423 28418763 -379723624#1 -379723624#0 -32923867#4 -32923867#3 -32923867#2 -32923867#1 -32923867#0 130996520 130996520.58 172519650 306396705 174321447 58295043 32923863#2 266607804#0 266607804#1 266607804#2 266607803#0 266607803#1 266607803#2 266607792#0 266607792#5 200949176#0 200949176#1 116765451#0 116765451#3 390835794#0 390835794#1 266607799 26339624#0 26339624#2 26339623#5 -71809618#3 -71809618#2 -28577490#3 -28577490#2 -28577490#1 -28577490#0 -138265826#12 -138265826#11 391208993#0 -25375770#1" probability="0.25735418"/>
            <route cost="454.90" edges="103687353 32200983#0 32200983#3 -145069366#3 -145069366#2 -28418764#2 -28418764#1 -28418764#0.88 -28418764#0.109 32225921 32124561#1 32124561#3 32124561#4 233673423 28418763 -379723624#1 -379723624#0 -32923867#4 -32923867#3 -32923867#2 -32923867#1 -32923867#0 130996520 130996520.58 172519650 306396705 174321447 58295043 32923863#2 266607804#0 266607804#1 266607804#2 266607803#0 266607803#1 266607803#2 266607792#0 266607792#5 200949176#0 200949176#1 116765451#0 116765451#3 390835794#0 390835794#1 266607799 26339624#0 26339624#2 26339623#5 -71809618#3 -71809618#2 -28577490#3 -28577490#2 -28577490#1 -28577490#0 -138265826#12 -138265826#11 391208993#0 -25375770#1" probability="0.20700666"/>
            <route cost="455.07" edges="103687353 32200983#0 32200983#3 24982688#0 24982688#0.12 24982688#2 29002614 32201042 32201044#0 32201044#1 32201044#2 233673423 28418763 -379723624#1 -379723624#0 -32923867#4 -32923867#3 -32923867#2 -32923867#1 -32923867#0 130996520 130996520.58 172519650 306396705 174321447 58295043 32923863#2 266607804#0 266607804#1 266607804#2 266607803#0 266607803#1 266607803#2 266607792#0 266607792#5 200949176#0 200949176#1 116765451#0 116765451#3 390835794#0 -26339478#5 -26339625#1 26339624#2 26339623#5 -71809618#3 -71809618#2 -28577490#3 -28577490#2 -28577490#1 -28577490#0 -138265826#12 -138265826#11 391208993#0 -25375770#1" probability="0.19586901"/>
            <route cost="489.20" edges="103687353 32200983#0 32200983#3 24982688#0 24982688#0.12 24982688#2 24982688#3 145069294#0 32201042 32201044#0 32201044#1 32201044#2 233673423 28418763 -379723624#1 -379723624#0 -32923867#4 -32923867#3 -32923867#2 -32923867#1 -32923867#0 130996520 130996520.58 172519650 306396705 174321447 58295043 32923863#2 266607804#0 266607804#1 266607804#2 266607803#0 266607803#1 266607803#2 266607792#0 266607792#5 200949176#0 200949176#1 116765451#0 116765451#3 390835794#0 -26339478#5 -26339625#1 26339624#2 26339623#5 -71809618#3 -71809618#2 -28577490#3 -28577490#2 -28577490#1 -28577490#0 -138265826#12 -138265826#11 391208993#0 -25375770#1" probability="0.17440089"/>
            <route cost="488.39" edges="103687353 32200983#0 32200983#3 24982688#0 24982688#0.12 24982688#2 24982688#3 145069294#0 32201042 32201044#0 32201044#1 32201044#2 233673423 28418763 -379723624#1 -379723624#0 -32923867#4 -32923867#3 -32923867#2 -32923867#1 -32923867#0 130996520 130996520.58 172519650 306396705 174321447 58295043 32923863#2 266607804#0 266607804#1 266607804#2 266607803#0 266607803#1 266607803#2 266607792#0 266607792#5 200949176#0 200949176#1 116765451#0 116765451#3 390835794#0 390835794#1 266607799 26339624#0 26339624#2 26339623#5 -71809618#3 -71809618#2 -28577490#3 -28577490#2 -28577490#1 -28577490#0 -138265826#12 -138265826#11 391208993#0 -25375770#1" probability="0.16536927"/>
        </routeDistribution>
    </vehicle>
    <vehicle arrivalPos="25.00" arrivalSpeed="0.00" depart="27759.00" departPos="40.16" id="h9204c1:1" type="default_006">
        <routeDistribution last="0">
            <route cost="1139.20" edges="-32199969#1 -164051410#1 -164051410#0 24977473#0 54154922#0 54154922#1 26071515#0 26071515#1 4324820 164051399 201956817 33279254#1 556434727 542630099 354967545#0.45 354967545#1 -266887590#1 -266887590#0 -589179144 -266887589#2 -201926268#1 -266887588#1 -266887588#0 -266887593#6 -266887593#3 -266887591 -141058757 111525330#0 350320331#0 266885723#0 161680739 27453586#0 gneE119" probability="0.42943936"/>
            <route cost="1177.45" edges="-32199969#1 -164051410#1 24989879 42745460 42745461#0 42745461#1 54154922#0 54154922#1 26071515#0 26071515#1 4324820 164051399 201956817 33279254#1 556434727 542630099 354967545#0.45 354967545#1 -266887590#1 -266887590#0 -589179144 -266887589#2 -201926268#1 -266887588#1 -266887588#0 -266887593#6 -266887593#3 -266887591 -141058757 111525330#0 350320331#0 266885723#0 161680739 27453586#0 gneE119" probability="0.37242624"/>
            <route cost="2510.92" edges="-32199969#1 -164051410#1 -164051410#0 24977473#0 54154922#0 54154922#1 26071515#0 26071515#1 4324820 164051399 201956817 33279254#1 556434727 542630099 354967545#0.45 354967545#1 141058765#0 141058765#1 141058765#2 141058765#2.33 31624236#0 172700927#0 -48742425#2 -48742425#1 -48742425#0 -37282688#5 -37282688#4 -37282688#3 20975950#0 20975950#1 -20975942#2 -20975942#1 20975954#0 20975954#1 28269810#4 30482619 -205182378#7 -205182378#6 -20588629#1 20588627 -20588624#1 -20588624#0 201926265#2 201926265#3 201926265#4 -30054829#0 72883541#0 -20266190#2 -20266190#1 -266887593#3 -266887591 -141058757 111525330#0 350320331#0 266885723#0 161680739 27453586#0 gneE119" probability="0.07942148"/>
            <route cost="1612.67" edges="-32199969#1 -164051410#1 24989879 -28132014#2 -28132014#0 24978651 115082348#0 115082348#1 115082348#3 115082348#4 257907858#0 27202149 202070427#0 202070427#1 202070427#2 33280103#0 33280103#1 33280103#2 33280103#3 33280103#4 33280103#4.68 97304242#0 25626605#0 25626605#1 25626605#2 25626605#4 60064938#0 60064938#1 60064938#2 60064938#3 60064938#4 391029014#0 391029014#1 -25623127#1 -25623127#0 -25623126#2 -25623126#1 25623125#2 -39698490 -39698489 -37681592#6 -37681592#5 -37681592#4 -37681592#3 -37681592#2 -37681592#1 -441565711 -47067277 -138300617#4 -138300617#3 138300629 306793669 32976752 28091398 327975022 327975022.30 327975022.62 39704920 151167740 266507555 266507558 39704924 39704922 266507540 27392720 27392724 266507546 266507536 27550700 27454737 266507535 32930761 146973160 266885714 146973156#0 450076615#0 161680739 27453586#0 gneE119" probability="0.11341224"/>
            <route cost="1511.51" edges="-32199969#1 -164051410#1 -164051410#0 24977473#0 54154921#0 54154921#3 201926266 30482638#0 30482638#3 30482638#4 30482638#9 30482638#10 30482638#11 30482638#12 201789799#0 201789799#1 201789799#2 201789798#0 201789798#1 202070435#0 202070435#1 202070435#2 202070435#5 202070435#5.37 202070435#5.70 202070435#9 202070435#12 202070435#13 40059576#0 -157305700#5 -157305700#3 -157305700#2 -157305700#1 -157305700#0 157305703 638602238 -138300617#4 -138300617#3 138300629 306793669 32976752 28091398 327975022 327975022.30 327975022.62 39704920 151167740 266507555 266507558 39704924 39704922 266507540 27392720 27392724 266507546 266507536 27550700 27454737 266507535 32930761 146973160 266885714 146973156#0 450076615#0 161680739 27453586#0 gneE119" probability="0.00530067"/>
        </routeDistribution>
    </vehicle>
    <vehicle arrivalPos="63.39" arrivalSpeed="0.00" depart="27788.00" departPos="118.64" id="h13941c1:1" type="default_006">
        <routeDistribution last="2">
            <route cost="767.40" edges="30482638#11 25573246#0 25573254 -25573260#0 -30482638#10 -30482638#9 -30482638#8 -30482638#3 -30482638#2 -201926266 -90587320 -37480109 -90587323 -10425611#1 -10425611#0 -10425611#0.35 -164051429#1 -164051429#0 -161678034#2 -161678034#2.33 -161678034#2.50 -161678034#1 -161678034#0 28119593 -24983010#2 -24983010#0 26973015 -145069303#4 -145069303#3 -145069303#1 -145069303#0 -32009683#1 -24972185#9 -24972185#8 -24972185#8.373 -24972185#1 -32978638#3 -32978638#0 32021112#0 168702040#1 168702040#2 168702040#3 168702040#4 168702039#0 168702039#1 32999434#0 24693977#0 24693977#1 315392062#0 -160314346#1 -160314346#0 24634505 24634510#0 24634510#1 24634510#6 24634510#7 24634510#9 24634510#16 201238726#0 201238726#0.117 201238726#1 201238729#1 201238729#2 201238729#3 201238729#5 201238729#6 138002148 128361091 379795371 378946906 449057059 449057052 109483352#0 109483352#1 -201238725#5 -201238725#3 -201238725#2 -201238725#1 -24754876#13 -24754876#11 gneE226" probability="0.22401607"/>
            <route cost="776.93" edges="30482638#11 25573246#0 25573254 -25573260#0 -30482638#10 -30482638#9 -30482638#8 -30482638#3 -30482638#2 -201926266 -90587320 -37480109 -90587323 -10425611#1 -10425611#0 -10425611#0.35 -164051429#1 -164051429#0 -161678034#2 -161678034#2.33 -161678034#2.50 -161678034#1 -161678034#0 -51857519#1 -32350852#4 -32350852#3 -32350852#1 -28418764#2 -28418764#1 -28418764#0.88 -28418764#0.109 -542617943 -389831364 10425610#0 156923526#0 156923526#3 390282481 51856496#0 51856496#1 51856496#2 51856496#3 51856496#4 51856496#5 51856496#6 51856496#8 204388144#0 204388144#1 -33102476 -36689751#2 10425609#0 10425609#1 201963537#1 -164051413 -653473569#5 25145013#0 -25145012#6 -25145012#5 -22716069#1 25145014#0 25145014#1 25187891 -136728347#4 -201963533#5 -201963533#4 -201963533#1 -201963533#1.120 -201963533#1.145 -201963533#0 -285549250#1 -128361102#1 128361107#0 128361107#1 449057056 378946908 128361091 379795371 378946906 449057059 449057052 109483352#0 109483352#1 -201238725#5 -201238725#3 -201238725#2 -201238725#1 -24754876#13 -24754876#11 gneE226" probability="0.20783873"/>
            <route cost="747.12" edges="30482638#11 25573246#0 25573254 -25573260#0 -30482638#10 -30482638#9 -30482638#8 -30482638#3 -30482638#2 -201926266 -90587320 -37480109 -90587323 -10425611#1 -10425611#0 -10425611#0.35 -164051429#1 -164051429#0 -161678034#2 -161678034#2.33 -161678034#2.50 -161678034#1 -161678034#0 -51857519#1 -32350852#4 -32350852#3 -32350852#1 -28418764#2 -28418764#1 -28418764#0.88 -28418764#0.109 -542617943 -389831364 10425610#0 156923526#0 156923526#3 390282481 51856496#0 51856496#1 51856496#2 51856496#3 51856496#4 51856496#5 51856496#6 51856496#8 204388144#0 204388144#1 -33102476 -36689751#2 10425609#0 10425609#1 201963537#1 -164051413 -653473569#5 25145013#0 -25145012#6 -25145012#5 -22716069#1 -22716069#0 -233675413#1 -233675413#0 -136728347#4 -201963533#5 -201963533#4 -201963533#1 -201963533#1.120 -201963533#1.145 -201963533#0 -285549250#1 -128361102#1 128361107#0 128361107#1 449057056 378946908 128361091 379795371 378946906 449057059 449057052 109483352#0 109483352#1 -201238725#5 -201238725#3 -201238725#2 -201238725#1 -24754876#13 -24754876#11 gneE226" probability="0.20636490"/>
            <route cost="824.96" edges="30482638#11 25573246#0 25573254 -25573260#0 -30482638#10 -30482638#9 -30482638#8 -30482638#3 -30482638#2 -201926266 -90587320 -37480109 -90587323 -10425611#1 -10425611#0 -10425611#0.35 -164051429#1 -164051429#0 -161678034#2 -161678034#2.33 -161678034#2.50 -161678034#1 -161678034#0 28119593 -24983010#2 -24983010#0 26973015 -145069303#4 -145069303#3 -145069303#1 -145069303#0 -32009683#1 -24972185#9 -24972185#8 -24972185#8.373 -24972185#1 -32978638#3 -32978638#0 32021112#0 168702040#1 168702040#2 168702040#3 168702040#4 168702039#0 168702039#1 32999434#0 24693977#0 24693977#1 315392062#0 -160314346#1 -160314346#0 24634505 24634510#0 24634510#1 24634510#6 24634510#7 24634510#9 24634510#16 -10427692#8 -10427692#7 -10427692#6 -10427692#5 -10427692#4 -10427692#3 -10427692#2 -10427692#1 -285549250#1 -128361102#1 128361107#0 128361107#1 449057056 378946908 128361091 379795371 378946906 449057059 449057052 109483352#0 109483352#1 -201238725#5 -201238725#3 -201238725#2 -201238725#1 -24754876#13 -24754876#11 gneE226" probability="0.17861361"/>
            <route cost="788.51" edges="30482638#11 25573246#0 25573254 -25573260#0 -30482638#10 -30482638#9 -30482638#8 -30482638#3 -30482638#2 -201926266 -90587320 -37480109 -90587323 -10425611#1 -10425611#0 -10425611#0.35 -164051429#1 -164051429#0 -161678034#2 -161678034#2.33 -161678034#2.50 -161678034#1 -161678034#0 28119593 -24983010#2 -24983010#0 26973015 -145069303#4 -145069303#3 -145069303#1 -145069303#0 -32009683#1 -24972185#9 -24972185#8 -24972185#8.373 -24972185#1 -32978638#3 -32978638#0 32021112#0 168702040#1 168702040#2 168702040#3 168702040#4 -315358253#3 -315358253#2 -315358253#1 -315358253#0 -315358248#1 -315358245 -202092675.36 -4942389#1 -4942389#0 -136436466 386687242 23166741#0 23166741#2 23166741#5 201201953#0 201201953#2 201201953#4 201201953#10 201201953#12 176550246 201238729#1 201238729#2 201238729#3 201238729#5 201238729#6 138002148 128361091 379795371 378946906 449057059 449057052 109483352#0 109483352#1 -201238725#5 -201238725#3 -201238725#2 -201238725#1 -24754876#13 -24754876#11 gneE226" probability="0.18316669"/>
        </routeDistribution>
    </vehicle>
    <vehicle arrivalPos="40.32" arrivalSpeed="0.00" depart="27793.00" departPos="23.46" id="h1149c1:1" type="default_006">
        <routeDistribution last="0">
            <route cost="552.67" edges="358042226 40801168 -32226141#0 -32234776#1 -103512667#2 -103512667#1 -103512667#0 103512671 -33102477 18909061#0 389831363#0 32061928#2 32061928#4 32061928#5 389840420#3 -32978638#3 -32978638#0 32021112#0 51857516#1 -266565295#5 -266565295#4 -266565295#3 -148050451#2 -148050452#0 148050455#1 148050455#2 28639688#0 28639688#1 28639688#3 116687469#0 248012815#0 248012815#1 30399325 30399322#1.56 30399322#2 30399322#3.66 542635729 31342347 32203023#0 32203023#2 32203023#2.134 23009600#0 23009600#2 29205273#0 29205273#1 29205273#2 29205273#3 29205272#14 29205272#0 29205272#1 29205272#2 -29205279" probability="0.25993268"/>
            <route cost="553.36" edges="358042226 40801168 -32226141#0 -32234776#1 -103512667#2 -103512667#1 -103512667#0 103512671 -33102477 18909061#0 389831363#0 32061928#2 32061928#4 32061928#5 389840420#3 -32978638#3 -32978638#0 32021112#0 51857516#1 -266565295#5 -266565295#4 -266565295#3 -148050451#2 -148050452#0 148050455#1 148050455#2 28639688#0 28639688#1 28639688#3 116687469#0 248012815#0 248012815#1 30399325 30399322#1.56 30399322#2 30399322#3.66 542635729 31342347 32203023#0 32203023#2 32203023#2.134 23009600#0 23009600#2 29205273#0 29205273#1 29205273#2 29205273#3 29205273#6 29205273#7 29205273#8 29205273#9 -29205272#10 -29205279" probability="0.25359989"/>
            <route cost="561.67" edges="358042226 40801168 -32226141#0 -32234776#1 -103512667#2 -103512667#1 -103512667#0 103512671 -33102477 18909061#0 389831363#0 32061928#2 32061928#4 32061928#5 389840420#3 -32978638#3 -32978638#0 32021112#0 51857516#1 -266565295#5 -266565295#4 25955175#0 25955175#1 25955175#2 42745545#5 42745545#5.128 42745545#6 28639688#0 28639688#1 28639688#3 116687469#0 248012815#0 248012815#1 30399325 30399322#1.56 30399322#2 30399322#3.66 542635729 31342347 32203023#0 32203023#2 32203023#2.134 23009600#0 23009600#2 29205273#0 29205273#1 29205273#2 29205273#3 29205272#14 29205272#0 29205272#1 29205272#2 -29205279" probability="0.18939168"/>
            <route cost="592.90" edges="358042226 40801168 -32226141#0 -32234776#1 -103512667#2 -103512667#1 -103512667#0 103512671 -33102477 18909061#0 389831363#0 32061928#2 32061928#4 32061928#5 389840420#3 -32978638#3 -32978638#0 32021112#0 51857516#1 -266565295#5 -266565295#4 25955175#0 25955175#1 25955175#2 42745545#5 42745545#5.128 42745545#6 28639688#0 28639688#1 28639688#3 116687469#0 248012815#0 248012815#1 30399325 30399322#1.56 25367735#1 -25344437#5 30399316#2 -273123309#0 -153220338#1 29205273#0 29205273#1 29205273#2 29205273#3 29205272#14 29205272#0 29205272#1 29205272#2 -29205279" probability="0.18041580"/>
            <route cost="575.23" edges="358042226 40801168 -32226141#0 -32234776#1 -103512667#2 -103512667#1 -103512667#0 103512671 -33102477 18909061#0 389831363#0 32061928#2 32061928#4 32061928#5 389840420#3 24972185#0 24972185#2 24972185#2.111 24972185#9 29048562#0 11014139#0 24991573 24991571 64464405 266567306 64464408 64464384#1 32009827 266567303 266567294#0 25797090#1 201444272#0 201444272#1 201444272#3 29027727#0 29027727#4 29027727#6 29027727#7 29027727#9 -29238188#3 -25895966#7 -25895966#5 -274823622#2 -274823622#1 -274823622#0 -274823622#0.68 -31342351#1 23009600#0 23009600#2 29205273#0 29205273#1 29205273#2 29205273#3 29205272#14 29205272#0 29205272#1 29205272#2 -29205279" probability="0.11665997"/>
        </routeDistribution>
    </vehicle>
    <vehicle arrivalPos="0.00" arrivalSpeed="0.00" depart="27794.00" departPos="8.36" id="h4020c2:1" type="default_006">
        <routeDistribution last="0">
            <route cost="101311.12" edges="-148050452#1 -148050452#0 148050455#1 148050455#2 28639688#0 28639688#1 28639688#3 116687469#0 248012815#0 248012815#1 30399325 30399322#1.56 30399322#2 30399322#3.66 542635729 31342347 32203023#0 32203023#2 32203023#2.134 31342350#0 31342350#1 31342350#2 31342350#2.130 97304242#0 25626605#0 25626605#1 25626605#2 25626605#4 60064938#0 60064938#1 60064938#2 60064938#3 60064938#4 391029014#0 391029014#1 -25623127#1 -25623127#0 -25623126#2 -25623126#1 -25623125#1 -4058127#1 151167747 151167747.23 549032836 39704924 39704922 266507540 27392720 27392724 266507546 266507536 27550700 27454737 266507535 32930761 146973160 266885714 266885716 266885719 266885719.121 266885713 221257625.670 221257625.683 221257625.1565 221257625.1575" probability="0.26916889"/>
            <route cost="101472.99" edges="-148050452#1 -148050452#0 148050455#1 148050455#2 28639688#0 28639688#1 28639688#3 24890429#0 24890429#1 24890429#2 -203127020#4 -140684000#1 -140684000#0 380273341 140684001 -233673425#1 -233673425#0 -266567307#1 -30404124 30417892 266567308#0 64464384#1 32009827 266567303 266567294#0 31342064#1 31342064#1.83 305495773#0 266507551 266507552#0 31021475 202070430 202070429#0 202070429#1 202070429#2 202070429#3 202070429#4 202070429#5 202070429#6 202070429#7 201789794#0 201789794#3 308849647 266507550 30320943 23622426 -195073412#2 -195073412#1 -195073412#0 195073415 266507536 27550700 27454737 266507535 32930761 146973160 266885714 266885716 266885719 266885719.121 266885713 221257625.670 221257625.683 221257625.1565 221257625.1575" probability="0.19358521"/>
            <route cost="101279.13" edges="-148050452#1 -148050452#0 148050455#1 148050455#2 28639688#0 28639688#1 28639688#3 116687469#0 248012815#0 248012815#1 30399325 30399322#1.56 30399322#2 30399322#3.66 542635729 31342347 32203023#0 32203023#2 32203023#2.134 31342350#0 31342350#1 31342350#2 31342350#2.130 391208990 391029009#0 391029009#0.69 391029009#1 391029009#1.157 41425835 41425835.214 41425835.236 151167747 151167747.23 549032836 39704924 39704922 266507540 27392720 27392724 266507546 266507536 27550700 27454737 266507535 32930761 146973160 266885714 266885716 266885719 266885719.121 266885713 221257625.670 221257625.683 221257625.1565 221257625.1575" probability="0.18694617"/>
            <route cost="101333.16" edges="-148050452#1 -148050452#0 148050455#1 148050455#2 28639688#0 28639688#1 28639688#3 116687469#0 248012815#0 248012815#1 30399325 30399322#1.56 30399322#2 30399322#3.66 542635729 31342347 32203023#0 32203023#2 32203023#2.134 31342350#0 31342350#1 31342350#2 31342350#2.130 391208990 -391208989 -391029007 -25626614#2 -25626614#1 -25626614#0 -391208991 -542650762 -542650762.100 -4061708 41425835 41425835.214 41425835.236 151167747 151167747.23 549032836 39704924 39704922 266507540 27392720 27392724 266507546 266507536 27550700 27454737 266507535 32930761 146973160 266885714 266885716 266885719 266885719.121 266885713 221257625.670 221257625.683 221257625.1565 221257625.1575" probability="0.17897575"/>
            <route cost="101405.48" edges="-148050452#1 -148050452#0 148050455#1 148050455#2 28639688#0 28639688#1 28639688#3 116687469#0 248012815#0 248012815#1 30399325 30399322#1.56 30399322#2 30399322#3.66 542635729 31342347 32203023#0 32203023#2 32203023#2.134 31342350#0 31342350#1 31342350#2 31342350#2.130 391208990 -391208989 -391029007 -25626614#2 -25626614#1 -25626614#0 -391208991 391029010 -25623126#2 -25623126#1 25623125#2 -39698490 -39698489 -37681592#6 -37681592#5 -37681592#4 -37681592#3 -37681592#2 -37681592#1 -37681592#0 -138300617#3 138300629 306793669 32976752 28091398 327975022 327975022.30 327975022.62 39704920 151167740 266507555 266507558 39704924 39704922 266507540 27392720 27392724 266507546 266507536 27550700 27454737 266507535 32930761 146973160 266885714 266885716 266885719 266885719.121 266885713 221257625.670 221257625.683 221257625.1565 221257625.1575" probability="0.17132396"/>
        </routeDistribution>
    </vehicle>
    <vehicle arrivalPos="25.00" arrivalSpeed="0.00" depart="27795.00" departPos="51.49" id="h13461c1:1" type="default_006">
        <routeDistribution last="1">
            <route cost="1139.04" edges="153692841#4 -25573260#1 -25573260#0 -30482638#10 -30482638#9 -30482638#8 -30482638#3 -30482638#2 -201926266 -54154921#3 -54154921#2 54154922#0 54154922#1 26071515#0 26071515#1 4324820 164051399 201956817 33279254#1 556434727 542630099 354967545#0.45 354967545#1 -266887590#1 -266887590#0 -589179144 -266887589#2 -201926268#1 -266887588#1 -266887588#0 -266887593#6 -266887593#3 -266887591 -141058757 111525330#0 350320331#0 266885723#0 161680739 27453586#0 gneE119" probability="0.26741697"/>
            <route cost="1223.31" edges="153692841#4 25573260#2 -25597196#9 -25597196#6 -25597196#5 -25597196#4 -25597196#3 -25597196#2 -25597196#1 42745460 42745461#0 42745461#1 54154922#0 54154922#1 26071515#0 26071515#1 4324820 164051399 201956817 33279254#1 556434727 542630099 354967545#0.45 354967545#1 -266887590#1 -266887590#0 -589179144 -266887589#2 -201926268#1 -266887588#1 -266887588#0 -266887593#6 -266887593#3 -266887591 -141058757 111525330#0 350320331#0 266885723#0 161680739 27453586#0 gneE119" probability="0.20075226"/>
            <route cost="1119.83" edges="153692841#4 -25573260#1 -25573260#0 -30482638#10 -30482638#9 -30482638#8 -30482638#3 -30482638#2 -201926266 -90587320 -37480109 -90587323 -10425611#1 -10425611#0 -10425611#0.35 4324827#0 203971381#0 203971381#1 4324820 164051399 201956817 33279254#1 556434727 542630099 354967545#0.45 354967545#1 -266887590#1 -266887590#0 -589179144 -266887589#2 -201926268#1 -266887588#1 -266887588#0 -266887593#6 -266887593#3 -266887591 -141058757 111525330#0 350320331#0 266885723#0 161680739 27453586#0 gneE119" probability="0.21145388"/>
            <route cost="1213.46" edges="153692841#4 -25573260#1 -25573260#0 -30482638#10 -30482638#9 -153692837#5 -153692837#4 -25597196#6 -25597196#5 -25597196#4 -25597196#3 -25597196#2 -25597196#1 42745460 42745461#0 42745461#1 54154922#0 54154922#1 26071515#0 26071515#1 4324820 164051399 201956817 33279254#1 556434727 542630099 354967545#0.45 354967545#1 -266887590#1 -266887590#0 -589179144 -266887589#2 -201926268#1 -266887588#1 -266887588#0 -266887593#6 -266887593#3 -266887591 -141058757 111525330#0 350320331#0 266885723#0 161680739 27453586#0 gneE119" probability="0.17447625"/>
            <route cost="1364.26" edges="153692841#4 -25573260#1 -25573260#0 25640157#0 25640375#0 25640375#1 25640375#3 -92026769#3 -92026769#2 -92026769#1 -92026769#0 -25895947#1 -25895947#0 202070435#2 202070435#5 202070435#5.37 202070435#5.70 202070435#9 202070435#12 202070435#13 40059576#0 -157305700#5 -157305700#3 -157305700#2 -157305700#1 -157305700#0 157305703 638602238 -138300617#4 -138300617#3 138300629 306793669 32976752 28091398 327975022 327975022.30 327975022.62 39704920 151167740 266507555 266507558 39704924 39704922 266507540 27392720 27392724 266507546 266507536 27550700 27454737 266507535 32930761 146973160 266885714 146973156#0 450076615#0 161680739 27453586#0 gneE119" probability="0.14590063"/>
        </routeDistribution>
    </vehicle>
    <vehicle arrivalPos="114.47" arrivalSpeed="0.00" depart="27796.00" departPos="51.69" id="h332c1:1" type="default_006">
        <routeDistribution last="2">