<routes >
    <vType color="red" id="default_013" vClass="passenger"/>
    <vType color="blue" id="random_013" vClass="passenger"/>
    <vehicle arrivalPos="0.00" arrivalSpeed="0.00" depart="48981.00" departPos="84.76" id="h9618c1:3" type="default_013">
        <routeDistribution last="1">
            <route cost="100338.28" edges="25640093#6 25640093#7 115082348#3 115082348#4 257907858#0 31021475 202070430 202070429#0 202070429#1 202070429#2 202070429#3 202070429#4 202070429#5 202070429#6 202070429#7 201789794#0 201789794#3 308849647 266507550 30320943 378466167 266507548 32976755 327975020 327975024 327975024.20 327975024.51 327975019 28132017 32976751 32976751.35 306793670#0 306793670#1" probability="0.36319151"/>
            <route cost="14825.11" edges="25640093#6 25640097#0 25640097#1 -60066780 25640098#0 -25640093#5 -25640093#4 -153692837#0 28132836#0 -175761127#15 -175761127#14 -175761127#13 -175761127#11 -175761127#9 -175761127#7 -175761127#1 -36291830 30320943 378466167 266507548 32976755 327975020 327975024 327975024.20 327975024.51 327975019 28132017 32976751 32976751.35 306793670#0 306793670#1" probability="0.46836434"/>
            <route cost="102007.11" edges="25640093#6 25640097#0 25640097#1 -60066780 25640098#0 -25640093#5 25596861#1 25596861#2 -25596855#1 -25596855#0 25596974#1 -25640093#2 25597372 -28132813 -175761127#11 -175761127#9 25895945#2 202070429#7 201789794#0 201789794#3 308849647 266507550 30320943 378466167 266507548 32976755 327975020 327975024 327975024.20 327975024.51 327975019 28132017 32976751 32976751.35 306793670#0 306793670#1" probability="0.09425115"/>
            <route cost="100622.49" edges="25640093#6 25640097#0 25640097#1 110435734 115082348#0 115082348#1 115082348#3 115082348#4 257907858#0 31021475 202070430 202070429#0 202070429#1 202070429#2 202070429#3 202070429#4 202070429#5 202070429#6 202070429#7 201789794#0 201789794#3 308849647 266507550 30320943 378466167 266507548 32976755 327975020 327975024 327975024.20 327975024.51 327975019 28132017 32976751 32976751.35 306793670#0 306793670#1" probability="0.03961327"/>
            <route cost="102100.97" edges="25640093#6 25640097#0 25640097#1 25640099 25597196#3 25597196#4 25597196#5 25597196#6 -153692837#3 gneE134 -481432711 -41139095 -25596851#6 -25596851#5 -25596851#4 -25596851#3 -25596851#2 -25596851#1 -25596851#0 201880159#1 201880159#2 201789796#0.31 201789796#1 30320943 378466167 266507548 32976755 327975020 327975024 327975024.20 327975024.51 327975019 28132017 32976751 32976751.35 306793670#0 306793670#1" probability="0.03457972"/>
        </routeDistribution>
    </vehicle>
    <vehicle arrivalPos="0.00" arrivalSpeed="0.00" depart="48986.00" departPos="159.49" id="h13364c1:1" type="default_013">
        <routeDistribution last="3">
            <route cost="102395.87" edges="-481432711 -41139095 gneE143 25596993#0 25596993#5 -149044751#2 -149044751#1 -149044751#0 201880159#2 201789796#0.31 201789796#1 30320943 23622426 -195073412#2 -195073412#1 -195073412#0 195073415 266507536 27550700 27454737 266507535 32930761 146973160 266885714 266885716 266885719 266885719.121 266885713 221257625.670 221257625.683 221257625.1565 221257625.1575" probability="0.22923241"/>
            <route cost="101085.95" edges="-481432711 -41139095 -25596851#6 -25596851#5 -25596851#4 -25596851#3 -25596851#2 -25596851#1 -25596851#0 201880159#1 201880159#2 201789796#0.31 201789796#1 30320943 23622426 -195073412#2 -195073412#1 -195073412#0 195073415 266507536 27550700 27454737 266507535 32930761 146973160 266885714 266885716 266885719 266885719.121 266885713 221257625.670 221257625.683 221257625.1565 221257625.1575" probability="0.19753106"/>
            <route cost="102239.48" edges="-481432711 -41139095 gneE143 149045269#0 149045269#2 149045269#3 201789794#0 201789794#3 308849647 266507550 30320943 23622426 -195073412#2 -195073412#1 -195073412#0 195073415 266507536 27550700 27454737 266507535 32930761 146973160 266885714 266885716 266885719 266885719.121 266885713 221257625.670 221257625.683 221257625.1565 221257625.1575" probability="0.19746382"/>
            <route cost="102217.86" edges="-481432711 25596974#0 25596974#1 25640093#3 -153692837#0 28132836#0 -175761127#15 -175761127#14 -175761127#13 -175761127#11 -175761127#9 -175761127#7 -175761127#1 -36291830 30320943 378466167 266507548 257907861 151167740 266507555 266507558 39704924 39704922 266507540 27392720 27392724 266507546 266507536 27550700 27454737 266507535 32930761 146973160 266885714 266885716 266885719 266885719.121 266885713 221257625.670 221257625.683 221257625.1565 221257625.1575" probability="0.19486067"/>
            <route cost="101361.15" edges="-481432711 -41139095 gneE143 25596993#0 25596993#5 149045845 149626676#0 307685696 308849647 266507550 30320943 23622426 -195073412#2 -195073412#1 -195073412#0 195073415 266507536 27550700 27454737 266507535 32930761 146973160 266885714 266885716 266885719 266885719.121 266885713 221257625.670 221257625.683 221257625.1565 221257625.1575" probability="0.18091203"/>
        </routeDistribution>
    </vehicle>
    <vehicle arrivalPos="230.00" arrivalSpeed="0.00" depart="48987.00" departPos="58.45" id="h14014c2:1" type="default_013">
        <routeDistribution last="1">
            <route cost="1347.61" edges="92026769#0 92026769#1 92026769#2 92026769#3 92026769#4 92026769#6 92026769#12 -25640150 -30482638#3 -30482638#2 -201926266 -90587320 -37480109 -90587323 -10425611#1 -10425611#0 -10425611#0.35 -164051429#1 -164051429#0 -161678034#2 -161678034#2.33 -161678034#2.50 -161678034#1 -161678034#0 -51857519#1 -32350852#4 -32350852#3 -32350852#1 -28418764#2 -28418764#1 -28418764#0.88 -28418764#0.109 32225921 32124561#1 32124561#3 32124561#4 233673423 28418763 -379723624#1 -379723624#0 -32923867#4 -32923867#3 -32923867#2 -32923867#1 -32923867#0 130996520 130996520.58 172519650 306396705 174321447 58295043 32923863#2 266607804#0 266607804#1 266607804#2 266607803#0 266607803#1 266607803#2 266607792#0 266607792#5 200949176#0 200949176#1 116765451#0 116765451#3 390835794#0 390835794#1 266607799 26339624#0 26339624#2 26339623#5 71809618#4 25375417#0 25375417#6 25375417#7 60100821#1 60100821#4 201243230#0 201243230#1 233673410#0 233673410#1 233673410#5 233673410#6 266607801#0 266607801#1 266607802#0 266607802#1 266607795#0 266607795#1 266607795#6 266607800#0 -200908888#2 -200908888#0 -201243223 -21966650#2 -21966650#0 54606432#7 54606432#8 54606432#9 233673422#7 233673422#9" probability="0.77685507"/>
            <route cost="988.85" edges="92026769#0 92026769#1 92026769#2 92026769#3 92026769#4 92026769#6 92026769#12 -25640150 -30482638#3 -30482638#2 -201926266 -54154921#3 -54154921#2 54154922#0 54154922#1 26071515#0 26071515#1 4324820 26471940#0 -164051438#2 -164051438#1 -164051438#0 -164051438#0.46 -164051438#0.62 -26471933 140834262#0 140834255#0 201953160#0 -208010459#1 -461125445 -461125446#2 -115881041#4 -115881041#3 -115881041#0 -58622231#5 -58622231#2 -201926269#3 -201926269#2 -201926269#1 -201926269#0 -389840423#0 -20266198 -201278210#8 -201278210#6 -201278210#5 -201278210#4 -201278210#3 -201278210#2 -201278210#1 -57827563#3 -57827563#2 -57827563#1 -57827563#0 20266195#0 20266195#2 20266195#4 -439871826 -22603932#1 -22603932#0 22603934#0 gneE120 gneE124 41567676#0 41567676#1 55600046#0 305495779#1 22603944#0 22603945#0 22603945#1.135 22603945#1.145 55600044#0 55600044#1 55600044#2 61671904 -51872706 -51872707 -28124854#0 -51872703 -32881185#1 41494424#0 233673422#0 233673422#2 233673422#4 233673422#5 233673422#7 233673422#9" probability="0.21886399"/>
            <route cost="20775.10" edges="92026769#0 32350901#1 32350901#2 201789797#0 -25597196#12 -25597196#11 -25597196#9 -25597196#6 -25597196#5 -25597196#4 -25597196#3 -25597196#2 -25597196#1 42745460 42745461#0 42745461#1 54154922#0 54154922#1 26071515#0 26071515#1 4324820 164051399 201956817 33279254#1 556434727 542630099 354967545#0.45 354967545#1 141058765#0 141058765#1 141058765#2 141058765#2.33 31624236#0 172700927#0 -48742425#2 -48742425#1 -48742425#0 23184252#0 23184252#1 201926265#0 201926265#1 201926265#2 201926265#3 201926265#4 201926265#5 201278209#0 201278209#2 -20405619 -57827563#0 20266195#0 20266195#2 20266195#4 -439871826 -22486112#6 -22486112#5 -22486112#4 -22486112#3 -22486112#2 -30054884#1 -30482633#1 -22486120#2 -141058755#0 -51262567#1 22603944#0 22603945#0 22603945#1.135 22603945#1.145 55600044#0 55600044#1 55600044#2 61671904 -51872706 -51872707 -28124854#0 -51872703 -32881185#1 41494424#0 233673422#0 233673422#2 233673422#4 233673422#5 233673422#7 233673422#9" probability="0.00382176"/>
            <route cost="2412.24" edges="92026769#0 92026769#1 92026769#2 92026769#3 92026769#4 92026769#6 92026769#12 -25640150 -30482638#3 -30482638#2 -201926266 -54154921#3 -54154921#2 54154922#0 54154922#1 26071515#0 26071515#1 4324820 164051399 201956817 33279254#1 556434727 542630099 354967545#0.45 354967545#1 141058765#0 141058765#1 141058765#2 141058765#2.33 103718178 -201278216#1 -201278214#1 -29458645 -29458645.13 -29458645.28 131118468#0 131118468#0.16 131118468#1 131118468#3 131118468#4 305390335 201278218#0 306396705 174321447 58295043 32923863#2 266607804#0 266607804#1 266607804#2 266607803#0 266607803#1 266607803#2 266607792#0 266607792#5 200949176#0 200949176#1 116765451#0 116765451#3 390835794#0 390835794#1 266607799 168249926#0 168249926#1 29027936#0 29027936#1 233673413#0 233673413#1 207091130 207091132#0 207091132#1 207091132#2 207091132#3 207091132#4 266607796 266607798 233673420#0 233673420#1 201243230#0 201243230#1 233673410#0 233673410#1 233673410#5 233673410#6 266607801#0 266607801#1 266607802#0 266607802#1 266607795#0 266607795#1 266607795#6 266607800#0 201243226#0 266607805#0 266607805#1 41494424#0 233673422#0 233673422#2 233673422#4 233673422#5 233673422#7 233673422#9" probability="0.00037856"/>
            <route cost="25003.02" edges="92026769#0 32350901#1 -25640145#4 -25640145#3 -25640145#2 -25640145#1 -25640375#0 -25640157#0 25573260#0 25573260#1 -153692841#4 -153692841#3 -25595931 -25597196#5 -25597196#4 -25597196#3 -25597196#2 -25597196#1 42745460 42745461#0 42745461#1 54154922#0 54154922#1 26071515#0 26071515#1 4324820 164051399 201956817 33279254#1 556434727 542630099 354967545#0.45 354967545#1 141058765#0 141058765#1 141058765#2 141058765#2.33 31624236#0 172700927#0 -48742425#2 -48742425#1 -48742425#0 -205182378#15 -205182378#14 -205182378#13 -205182378#12 -205182378#11 -28269810#6 -28269810#4 -28269810#3 -28269810#2 -28269810#1 -163586462 -4819338#4 -4819338#3 -4819338#1 -4819338#0 266607803#0 266607803#1 266607803#2 266607792#0 266607792#5 200949176#0 200949176#1 116765451#0 116765451#3 -39444740#6 -201078448#1 -10597455#2 201078447#0 201078447#3 39444748#0 39444748#1 39444748#4 39444748#5 39444748#8 201243230#0 201243230#1 233673410#0 233673410#1 233673410#5 233673410#6 266607801#0 266607801#1 266607802#0 266607802#1 266607795#0 266607795#1 266607795#6 266607800#0 201243226#0 266607805#0 266607805#1 41494424#0 233673422#0 233673422#2 233673422#4 233673422#5 233673422#7 233673422#9" probability="0.00008061"/>
        </routeDistribution>
    </vehicle>
    <vehicle arrivalPos="8.49" arrivalSpeed="0.00" depart="48998.00" departPos="11.79" id="randUni20375:1" type="random_013">
        <routeDistribution last="1">
            <route cost="3739.90" edges="25148889 32229742#5 145069384 -37649447#1 -32202011#1 51856496#8 204388144#0 204388144#1 18909061#0 389831363#0 32061928#2 32061928#4 32061928#5 389840420#3 -32978638#3 -32978638#0 32021112#0 51857516#1 -266565295#5 -266565295#4 -266565295#3 -266565295#2 148050448#0 148050448#1 306431310#1 148050457#0 148050453#5 25794520 24890429#2 -203127020#4 -140684000#1 -140684000#0 380273341 140684001 -233673425#1 -233673425#0 -266567307#1 -30404124 30417892 266567308#0 64464384#1 32009827 266567303 266567294#0 25797090#1 201444272#0 201444272#1 201444272#3 29027727#0 29027727#4 29027727#6 29027727#7 29027727#9 152077572#0 152077572#2 152077572#2.79 54858974 542727960 30399316#0 30399316#0.52 30399316#2 51745097#0 51745097#1 144655546#0 150746347#0 150746347#1 150746347#2 150746347#3 150746347#4 144655547#0 144655547#1 144655547#2 -72562708 -27872584#2" probability="0.44433120"/>
            <route cost="1022.72" edges="25148889 32229742#5 145069311#0 145069316#0 145069316#1 145069313#2 -103512667#2 -103512667#1 -145069287#7 -145069287#7.50 32230348 145069342#0 35926319#1 -108310253 -29458096 -51856495#2 -29458097#2 -32978638#3 -32978638#0 32021112#0 51857516#1 -266565295#5 -266565295#4 -266565295#3 -148050451#2 -148050452#0 148050455#1 148050455#2 28639688#0 28639688#1 28639688#3 116687469#0 248012815#0 248012815#1 30399325 30399322#1.56 25367735#1 -25344437#5 30399316#2 51745097#0 51745097#1 144655546#0 150746347#0 150746347#1 150746347#2 150746347#3 150746347#4 144655547#0 144655547#1 144655547#2 -72562708 -27872584#2" probability="0.29566930"/>
            <route cost="4103.86" edges="25148889 32229742#5 145069384 37649448#0 37649448#1 145069394#0 145069284 32229741 -145069371#1 -145069371#0 29002252#0 -62798408 -32201172 -24982688#4 -24982688#2 -24982688#1 -24982688#1.52 -145069366#3 -145069366#2 32350852#0 32350852#3 32350852#4 51857519#0 161678034#0 161678034#1 161678034#2 161678034#2.30 161678034#2.46 24970784#0 164051410#0 164051410#1 32199969#0 32199969#2 32199969#5 32199989#0 32199989#1 323248156#0 25797090#1 201444272#0 201444272#1 201444272#3 29027727#0 29027727#4 29027727#6 29027727#7 29027727#9 152077572#0 152077572#2 152077572#2.79 54858974 542727960 30399316#0 30399316#0.52 30399316#2 51745097#0 51745097#1 144655546#0 150746347#0 150746347#1 150746347#2 150746347#3 150746347#4 144655547#0 144655547#1 144655547#2 -72562708 -27872584#2" probability="0.25624014"/>
            <route cost="5563.05" edges="25148889 32229742#5 145069311#0 145069316#0 145069316#1 145069313#2 -103512667#2 -103512667#1 -145069287#7 -145069287#7.50 32230348 145069342#0 35926319#1 -108310253 -29458096 -51856495#2 -29458097#2 -32978638#3 -32978638#0 32021112#0 51857516#1 -266565295#5 -266565295#4 -266565295#3 -266565295#2 148050448#0 148050456 148050453#2 148050453#4 148050453#5 25794520 24890429#2 -203127020#4 -140684000#1 -140684000#0 380273341 140684001 -233673425#1 -233673425#0 -266567307#1 -30404124 30417892 266567308#0 64464384#1 32009827 266567303 266567294#0 25797090#1 201444272#0 201444272#1 24846867#0 25665370#0 -29238187#1 -29238187#0 -25797433#3 -25797433#2 -25797433#1 -25797433#0 -144657087#3 -144657087#2 -144657087#1 -144657087#0 31342350#1 31342350#2 31342350#2.130 97304242#0 97304242#2 97304242#4 97304242#5 97304242#6 97304242#7 97304242#8 97304242#9 97304242#10 97304242#12 -32140253 -51743953#3 -51743953#1 -32140444#5 -26135510#1 -26134542#2 -26134542#0 26134440#1 26134440#2 -26134468#2 25665421#1 25665421#2 29459182#0 144655547#0 144655547#1 144655547#2 -72562708 -27872584#2" probability="0.00363572"/>
            <route cost="6252.09" edges="25148889 32229742#5 145069311#0 145069316#0 145069316#1 145069313#2 -103512667#2 -103512667#1 -145069287#7 -145069287#7.50 32230348 145069342#0 35926319#1 -108310253 -29458096 -51856495#2 -29458097#2 -32978638#3 -32978638#0 32021112#0 51857516#1 -266565295#5 -266565295#4 -266565295#3 -266565295#2 -266565295#1 -266565295#0 -266565299 -24977590#1 -24977590#0 -233673425#1 -233673425#0 -266567307#1 -30404124 30417892 266567308#0 64464384#1 32009827 266567303 266567294#0 25797090#1 201444272#0 201444272#1 201444272#3 29027727#0 29027727#4 29027727#6 29027727#7 29027727#9 152077572#0 152077572#2 152077572#2.79 54858974 542727960 30399316#0 30399316#0.52 30399316#2 51745097#0 51745097#1 144655546#0 150746347#0 150746347#1 150746347#2 150746347#3 150746347#4 144655547#0 144655547#1 144655547#2 -72562708 -27872584#2" probability="0.00012364"/>
        </routeDistribution>
    </vehicle>
    <vehicle arrivalPos="28.60" arrivalSpeed="0.00" depart="49012.00" departPos="43.48" id="h4079c2:1" type="default_013">
        <routeDistribution last="0">
            <route cost="305.59" edges="-148050456 -148050448#0 266565295#2 266565295#3 266565295#4 266565295#5 32999435 32124637#0 32124637#1 168702040#1 168702040#2 168702040#3 168702040#4 168702039#0 168702039#1 32999434#0 24693977#0 24693977#1 -24634508 -24634507 24634509#1 160314351#0 160314351#1 24608845 24634505 24634510#0 24634510#1 24634510#6 24634510#7 24634510#9 24634510#16 -10427692#8 -10427692#7 -10427692#6 -10427692#5 -10427692#4" probability="0.66462688"/>
            <route cost="307.45" edges="-148050456 -148050448#0 266565295#2 266565295#3 266565295#4 266565295#5 32999435 29236658#2 -24608844 -160314345#6 -160314345#5 -160314345#4 -160314345#3 -160314345#2 -160314345#1 -160314345#0 -160314346#1 -160314346#0 24634505 24634510#0 24634510#1 24634510#6 24634510#7 24634510#9 24634510#16 -10427692#8 -10427692#7 -10427692#6 -10427692#5 -10427692#4" probability="0.00785274"/>
            <route cost="271.46" edges="-148050456 -148050448#0 266565295#2 266565295#3 266565295#4 266565295#5 32999435 32124637#0 32124637#1 168702040#1 168702040#2 168702040#3 168702040#4 168702039#0 168702039#1 32999434#0 24693977#0 24693977#1 315392062#0 -160314346#1 -160314346#0 24634505 24634510#0 24634510#1 24634510#6 24634510#7 24634510#9 24634510#16 -10427692#8 -10427692#7 -10427692#6 -10427692#5 -10427692#4" probability="0.32452141"/>
            <route cost="337.08" edges="-148050456 148050448#1 306431310#1 148050455#0 148050452#0 148050452#1 -25955175#1 24608842#0 24608842#1 -160314345#6 -160314345#5 -160314345#4 -160314345#3 -160314345#2 -160314345#1 -160314345#0 -160314346#1 -160314346#0 24634505 24634510#0 24634510#1 24634510#6 24634510#7 24634510#9 24634510#16 -10427692#8 -10427692#7 -10427692#6 -10427692#5 -10427692#4" probability="0.00274495"/>
            <route cost="306.74" edges="-148050456 -148050448#0 266565295#2 266565295#3 25955175#0 24608842#0 24608842#1 -160314345#6 -160314345#5 -160314345#4 -160314345#3 -160314345#2 -160314345#1 -160314345#0 -160314346#1 -160314346#0 24634505 24634510#0 24634510#1 24634510#6 24634510#7 24634510#9 24634510#16 -10427692#8 -10427692#7 -10427692#6 -10427692#5 -10427692#4" probability="0.00025402"/>
        </routeDistribution>
    </vehicle>
    <vehicle arrivalPos="230.00" arrivalSpeed="0.00" depart="49014.00" departPos="202.51" id="h3071c2:3" type="default_013">
        <routeDistribution last="0">
            <route cost="1772.16" edges="23525483#1 23525483#6 23525483#7 -23525483#0 -23436553#1 -22690205#1 233675413#4 233675413#7 -25145013#1 -25145013#0 653473569#5 164051413 124812857#0 201956811#0 36689751#0 33102476 173148224#1 -137685135 32202011#0 37649447#0 37649448#0 37649448#1 145069394#0 145069394#1 145069391 145069373#0 145069294#0 32201042 32201044#0 32201044#1 32201044#2 233673423 28418763 -379723624#1 -379723624#0 -32923867#4 -32923867#3 -32923867#2 -32923867#1 -32923867#0 130996520 130996520.58 172519650 306396705 174321447 58295043 32923863#2 266607804#0 266607804#1 266607804#2 266607803#0 266607803#1 266607803#2 266607792#0 266607792#5 200949176#0 200949176#1 116765451#0 116765451#3 -39444740#6 -201078448#1 -10597455#2 201078447#0 201078447#3 39444748#0 39444748#1 39444748#4 39444748#5 39444748#8 201243230#0 201243230#1 233673410#0 233673410#1 233673410#5 233673410#6 266607801#0 266607801#1 266607802#0 266607802#1 266607795#0 266607795#1 266607795#6 266607800#0 201243226#0 266607805#0 266607805#1 41494424#0 233673422#0 233673422#2 233673422#4 233673422#5 233673422#7 233673422#9" probability="0.80961057"/>
            <route cost="1150.70" edges="23525483#1 23525483#6 23525483#7 -23525483#0 -23436553#1 -22690205#1 233675413#4 233675413#7 139230366 27920078#0 27920078#1 -32124745 172488483#0 -83304175#2 -83304175#2.184 -83304175#2.204 -32061928#4 -32061928#3 -32061928#1 -18909061#1 -204388144#1 -204388144#0 -137685135 32202011#0 37649447#0 37649448#0 37649448#1 145069394#0 145069394#1 145069391 145069373#0 145069294#0 32201042 32201044#0 32201044#1 32201044#2 233673423 28418763 -379723624#1 -379723624#0 -32923867#4 -32923867#3 -32923867#2 -32923867#1 -32923867#0 130996520 130996520.58 172519650 306396705 174321447 58295043 32923863#2 266607804#0 266607804#1 266607804#2 266607803#0 266607803#1 266607803#2 266607792#0 266607792#5 200949176#0 200949176#1 116765451#0 116765451#3 390835794#0 390835794#1 266607799 168249926#0 168249926#1 -207091116#1 25375417#0 25375417#6 25375417#7 25375417#8 25375417#9 25375417#10 25375417#11 25375417#12 -25375814#1 233673410#6 266607801#0 266607801#1 266607802#0 266607802#1 266607795#0 266607795#1 266607795#6 266607800#0 201243226#0 266607805#0 266607805#1 41494424#0 233673422#0 233673422#2 233673422#4 233673422#5 233673422#7 233673422#9" probability="0.18837387"/>
            <route cost="13119.71" edges="23525483#1 23525483#6 23525483#7 -23525483#0 -23436553#1 -22690205#1 233675413#4 -25145011#2 -25145012#5 -25145012#4 -25145012#3 -25145012#2 -25187895#1 -25187895#0 28111977#10 653473568#1 653473569#0 -25149001#5 -25149001#4 -25149001#3 25188976#0 25188976#1 25188977 -25149001#0 -173169611#0 201956820 -29497467 -201969576#7 -201969576#6 -201969576#5 -201969576#4 -201969576#1 -201969576#0 -61940355 -24495188 -29458641 -61940356 29458640#0 172517196 -38508400#1 gneE20 33779209#1 174321447 58295043 32923863#2 266607804#0 266607804#1 266607804#2 266607803#0 266607803#1 266607803#2 266607792#0 266607792#5 200949176#0 200949176#1 116765451#0 116765451#3 390835794#0 390835794#1 266607799 26339624#0 26339624#2 26339623#5 71809618#4 25375417#0 25375417#6 25375417#7 25375417#8 25375417#9 25375417#10 25375417#11 25375417#12 -25375814#1 233673410#6 266607801#0 266607801#1 266607802#0 266607802#1 266607795#0 266607795#1 266607795#6 266607800#0 201243226#0 266607805#0 266607805#1 41494424#0 233673422#0 233673422#2 233673422#4 233673422#5 233673422#7 233673422#9" probability="0.00181341"/>
            <route cost="4658.15" edges="23525483#1 23525483#6 23525483#7 -23525483#0 -23436553#1 -22690205#1 233675413#4 233675413#7 139230366 27920078#0 27920078#1 201963535 104010354 124812857#0 201956811#0 36689751#0 33102476 173148224#1 -137685135 32202011#0 37649447#0 37649448#0 37649448#1 145069394#0 145069284 32229741 -145069371#1 -145069371#0 29002252#0 -62798408 -32201172 145069294#0 32201042 32201044#0 32201044#1 32201044#2 233673423 28418763 -379723624#1 -379723624#0 -32923867#4 -32923867#3 -32923867#2 -32923867#1 -32923867#0 130996520 130996520.58 172519650 306396705 -33779209#2 gneE19 -174609517#3 -33814393#3 -33814393#1 -33814393#0 -391208988 26339462#0 201933880#0 201933880#3 26339468#0 26339468#2 -26814848#3 26339473#1 26339478#2 26339478#3 -26339625#1 -26339624#1 168249926#0 168249926#1 29027936#0 29027936#1 233673413#0 233673413#1 207091130 207091132#0 207091132#1 207091132#2 207091132#3 207091132#4 266607796 266607798 233673420#0 233673420#1 201243230#0 201243230#1 233673410#0 233673410#1 233673410#5 233673410#6 266607801#0 266607801#1 266607802#0 266607802#1 266607795#0 266607795#1 266607795#6 266607800#0 201243226#0 266607805#0 266607805#1 41494424#0 233673422#0 233673422#2 233673422#4 233673422#5 233673422#7 233673422#9" probability="0.00012837"/>
            <route cost="11596.06" edges="23525483#1 23525483#6 23525483#7 -23525483#0 -23436553#1 -22690205#1 233675413#4 233675413#7 -25145013#1 -25145013#0 653473569#5 164051413 124812857#0 201956811#0 36689751#0 33102476 173148224#1 -137685135 -51856496#7 -51856496#5 -51856496#4 -51856496#3 -51856496#2 -51856496#1 -51856496#0 -390282481 -156923526#3 -156923526#2 -10425610#2 -102818928#1 -102818928#0 -102818928#0.78 -61940355 -24495188 -29458641 -61940356 29458640#0 172517196 -38508400#1 gneE20 33779209#1 174321447 58295043 32923863#2 266607804#0 266607804#1 266607804#2 266607803#0 266607803#1 266607803#2 266607792#0 266607792#5 200949176#0 200949176#1 116765451#0 116765451#3 -39444740#6 -201078448#1 -10597455#2 201078447#0 201078447#3 39444748#0 39444748#1 39444748#4 39444748#5 39444748#8 201243230#0 201243230#1 233673410#0 233673410#1 233673410#5 233673410#6 266607801#0 266607801#1 266607802#0 266607802#1 266607795#0 266607795#1 266607795#6 266607800#0 -200908888#2 -200908888#0 -201243223 -21966650#2 -21966650#0 54606432#7 54606432#8 54606432#9 233673422#7 233673422#9" probability="0.00007378"/>
        </routeDistribution>
    </vehicle>
    <vehicle arrivalPos="53.39" arrivalSpeed="0.00" depart="49049.00" departPos="120.58" id="randUni24932:1" type="random_013">
        <routeDistribution last="0">
            <route cost="1081.01" edges="-25640098#0 60066780 25640099 25597196#3 -25380714#1 -201926266 -90587320 -37480109 -90587323 -10425611#1 -10425611#0 -10425611#0.35 -164051429#1 -164051429#0 -161678034#2 -161678034#2.33 -161678034#2.50 -161678034#1 -161678034#0 28119593 -24983010#2 -24983010#0 -24692391#3 -24692391#1 144659495 144659489 24762523#0 24762523#1 31773007 77670297#0 52572753#0 52572753#2 29119898 145069331#0 145069287#0 145069287#0.136 -103512667#0 103512671 -33102477 -33102476 -36689751#2 10425609#0 10425609#1 201963537#1 -164051413 -653473569#5 -653473569#4 -653473569#2 -653473569#1 -653473569#0 -653473568#1 -653473568#0 -18813598#8 -18813598#7 -18813598#6 -18813598#1 18809673#0 18809673#7 18809673#9 18809673#12 -23622170#2 23622167#0" probability="0.43576438"/>
            <route cost="1461.61" edges="-25640098#0 60066780 110435734 115082348#0 115082348#1 115082348#3 115082348#4 257907858#0 27202149 202070427#0 25796375#0 25796375#1 25796375#2 25638527 32202927#0 32202927#1 25797315#1 25797433#2 25797433#3 137463478#3 29238188#0 -25665374 29027727#6 29027727#7 29027727#9 152077572#0 152077572#2 152077572#2.79 54858974 4942408 54858973#0 54858973#0.62 54858973#1 54858973#2 29119849#0 29119849#1 29119850 29119850.70 30399662#0 30399662#1 -148050455#2 -148050455#1 148050452#0 148050451#0 266565295#3 266565295#4 266565295#5 32999435 32124637#0 32124637#1 168702040#1 168702040#2 168702040#3 168702040#4 168702039#0 168702039#1 32999434#0 201089423#0 201089423#2 32124744 32124743 285716192#0 285716192#0.83 201963535 -104010328 -25145013#0 -653473569#4 -653473569#2 -653473569#1 -653473569#0 -653473568#1 -653473568#0 -18813598#8 -18813598#7 -18813598#6 -18813598#1 18809673#0 18809673#7 18809673#9 18809673#12 -23622170#2 23622167#0" probability="0.21475487"/>
            <route cost="997.45" edges="-25640098#0 60066780 -25640097#1 -25640097#0 25640093#7 115082348#3 115082348#4 257907858#0 27202149 202070427#0 25796375#0 25796375#1 25796375#2 25638527 32202927#0 32202927#1 32202927#2 137463478#2 137463478#3 29238188#0 29238188#1 29238188#3 152077572#0 152077572#2 152077572#2.79 54858974 4942408 54858973#0 54858973#0.62 54858973#1 54858973#2 29119849#0 29119849#1 29119850 29119850.70 30399662#0 30399662#1 54169280#0 54169280#1 54169280#2 54169280#3 54169280#4 54169280#6 386687232#0 136436466 4942389#0 4942389#1 202092675 315358245.27 315358248#0 315358253#0 315358253#1 315358253#2 315358253#3 168702039#0 168702039#1 32999434#0 201089423#0 201089423#2 32124744 32124743 285716192#0 285716192#0.83 104010439#1 202070434#0 202070434#2 -139230366 -25145013#1 -25145013#0 -653473569#4 -653473569#2 -653473569#1 -653473569#0 -653473568#1 -653473568#0 -18813598#8 -18813598#7 -18813598#6 -18813598#1 18809673#0 18809673#7 18809673#9 18809673#12 -23622170#2 23622167#0" probability="0.19071205"/>
            <route cost="1554.96" edges="-25640098#0 60066780 110435734 115082348#0 115082348#1 115082348#3 115082348#4 257907858#0 27202149 202070427#0 25796375#0 25796375#1 25796375#2 25796388 32202763 -25638529 25895961 -274823622#3 25895966#0 25895966#6 29238188#3 152077572#0 152077572#2 152077572#2.79 54858974 4942408 54858973#0 54858973#0.62 54858973#1 54858973#2 29119849#0 29119849#1 29119850 29119850.70 30399662#0 30399662#1 -148050455#2 -148050455#1 148050452#0 148050451#0 266565295#3 266565295#4 266565295#5 32999435 32124637#0 32124637#1 168702040#1 168702040#2 168702040#3 168702040#4 168702039#0 168702039#1 32999434#0 201089423#0 201089423#2 32124744 32124743 285716192#0 285716192#0.83 201963535 -104010328 -25145013#0 -653473569#4 -653473569#2 -653473569#1 -653473569#0 -653473568#1 -653473568#0 -18813598#8 -18813598#7 -18813598#6 -18813598#1 18809673#0 18809673#7 18809673#9 18809673#12 -23622170#2 23622167#0" probability="0.10832680"/>
            <route cost="1473.38" edges="-25640098#0 60066780 -25640097#1 -25640097#0 25640093#7 115082348#3 115082348#4 257907858#0 27202149 202070427#0 25796375#0 25796375#1 25796375#2 25796388 32202763 -25638529 25895961 -274823622#3 -274823622#2 -274823622#1 -274823622#0 -274823622#0.68 -31342351#1 31342349#0 31342349#3 4942408 54858973#0 54858973#0.62 54858973#1 54858973#2 29119849#0 29119849#1 29119850 29119850.70 30399662#0 30399662#1 -148050455#2 -148050455#1 148050452#0 148050451#0 266565295#3 266565295#4 266565295#5 32999435 32124637#0 32124637#1 168702040#1 168702040#2 168702040#3 168702040#4 168702039#0 168702039#1 32999434#0 201089423#0 201089423#2 32124744 32124743 285716192#0 285716192#0.83 104010439#1 202070434#0 202070434#2 -139230366 -233675413#8 -233675413#6 -233675413#3 -233675413#2 -233675413#1 -233675413#0 -136728347#4 -26642362#5 -26642362#3 -26642362#2 -26642362#1 -26642362#0 -25136986 -18813598#6 -18813598#1 18809673#0 18809673#7 18809673#9 18809673#12 -23622170#2 23622167#0" probability="0.05044191"/>
        </routeDistribution>
    </vehicle>
    <vehicle arrivalPos="0.00" arrivalSpeed="0.00" depart="49057.00" departPos="20.96" id="h8165c1:1" type="default_013">
        <routeDistribution last="1">