<routes >
    <vType color="red" id="default_002" vClass="passenger"/>
    <vType color="blue" id="random_002" vClass="passenger"/>
    <vehicle arrivalPos="0.00" arrivalSpeed="0.00" depart="18010.00" departPos="4.30" id="h92c2:1" type="default_002">
        <routeDistribution last="0">
            <route cost="100456.27" edges="379723624#1 10425803 -130996521#1 -379723624#1 -379723624#0 -32923867#4 -32923867#3 -32923867#2 -32923867#1 -32923867#0 130996520 130996520.58 172519650 306396705 174321447 58295043 32923863#2 266607804#0 266607804#1 266607804#2 266607803#0 266607803#1 266607803#2 266607792#0 266607792#5 200949176#0 200949176#1 116765451#0 116765451#3 390835794#0 390835794#1 266607799 26339624#0 26339624#2 26339623#5 -71809618#3 -71809618#2 -28577490#3 -28577490#2 -28577490#1 -28577490#0 -306431425#3 -379521569#6 -379521569#1 -379521569#0 -201950252#1 -315512845#7 -315512845#5 -315512845#3 -315512845#2 -315512845#1 -25699307#1 -51180454#5 -51180454#2 -51180454#1 -51180454#0 26346716#0 201950260 306431423#0 306431423#1 61738383 61738382#0 54606430 54606427#0 54606427#1 54606422#0 54606422#1 54606422#3" probability="0.20000709"/>
            <route cost="100463.99" edges="379723624#1 10425803 -130996521#1 -379723624#1 -379723624#0 -32923867#4 -32923867#3 -32923867#2 -32923867#1 -32923867#0 130996520 130996520.58 172519650 306396705 174321447 58295043 32923863#2 266607804#0 266607804#1 266607804#2 266607803#0 266607803#1 266607803#2 266607792#0 266607792#5 200949176#0 200949176#1 116765451#0 116765451#3 390835794#0 390835794#1 266607799 26339624#0 26339624#2 26339623#5 -71809618#3 -71809618#2 -28577490#3 -28577490#2 -28577490#1 -28577490#0 -138265826#12 -138265826#11 391208993#0 391208993#1 391208993#2 391208993#3 391208993#4 391208993#5 -391208987#1 -391029003 -155847374#2 -155847374#0 -26346717#3 -26346717#2 -26346717#1 -26346717#0 306431424 306431421 306431423#0 306431423#1 61738383 61738382#0 54606430 54606427#0 54606427#1 54606422#0 54606422#1 54606422#3" probability="0.20006700"/>
            <route cost="100465.17" edges="379723624#1 10425803 -130996521#1 -379723624#1 -379723624#0 -32923867#4 -32923867#3 -32923867#2 -32923867#1 -32923867#0 130996520 130996520.58 172519650 305390333 172515812#0 172517196 -38508400#1 -174609517#3 -33814393#3 -33814393#1 -33814393#0 -391208988 -40623117#2 -51244813#8 -51244813#7 -51244813#6 -51244813#5 -51244813#5.55 -51244813#3 -51244813#0 -26341775#7 -26341775#6 -26341775#5 -26341775#3 -26341775#1 -26341775#0 -26341775#0.81 -51244816 -201559932 -51244815#3 -51244815#2 -51244815#1 -51180454#5 -51180454#2 -51180454#1 -51180454#0 26346716#0 201950260 306431423#0 306431423#1 61738383 61738382#0 54606430 54606427#0 54606427#1 54606422#0 54606422#1 54606422#3" probability="0.20003712"/>
            <route cost="100468.76" edges="379723624#1 10425803 -130996521#1 -379723624#1 -379723624#0 -32923867#4 -32923867#3 -32923867#2 -32923867#1 -32923867#0 130996520 130996520.58 172519650 306396705 174321447 58295043 32923863#2 266607804#0 266607804#1 266607804#2 266607803#0 266607803#1 266607803#2 266607792#0 266607792#5 200949176#0 200949176#1 116765451#0 116765451#3 390835794#0 390835794#1 266607799 26339624#0 26339624#2 26339623#5 -71809618#3 -71809618#2 -28577490#3 -28577490#2 -28577490#1 -28577490#0 -306431425#3 -379521569#6 -379521569#1 -379521569#0 -201950252#1 -315512845#7 -315512845#5 -315512845#3 -315512845#2 -315512845#1 28269079#0 28269093#0 28269093#1 -51180454#1 -51180454#0 26346716#0 201950260 306431423#0 306431423#1 61738383 61738382#0 54606430 54606427#0 54606427#1 54606422#0 54606422#1 54606422#3" probability="0.19992750"/>
            <route cost="100470.10" edges="379723624#1 10425803 -130996521#1 -379723624#1 -379723624#0 -32923867#4 -32923867#3 -32923867#2 -32923867#1 -32923867#0 130996520 130996520.58 172519650 306396705 174321447 58295043 32923863#2 266607804#0 266607804#1 266607804#2 266607803#0 266607803#1 266607803#2 266607792#0 266607792#5 200949176#0 200949176#1 116765451#0 116765451#3 390835794#0 -26339478#5 -26339625#1 26339624#2 26339623#5 -71809618#3 -71809618#2 -28577490#3 -28577490#2 -28577490#1 -28577490#0 -138265826#12 -138265826#11 391208993#0 391208993#1 391208993#2 391208993#3 391208993#4 391208993#5 -391208987#1 -391029003 -155847374#2 -155847374#0 -26346717#3 -26346717#2 -26346717#1 -26346717#0 306431424 306431421 306431423#0 306431423#1 61738383 61738382#0 54606430 54606427#0 54606427#1 54606422#0 54606422#1 54606422#3" probability="0.19996130"/>
        </routeDistribution>
    </vehicle>
    <vehicle arrivalPos="127.58" arrivalSpeed="0.00" depart="18010.00" departPos="87.46" id="h11216c2:3" type="default_002">
        <routeDistribution last="0">
            <route cost="385.54" edges="-115881043#10 -115881043#8 -115881043#7 -115881043#6 -115881043#5 -115881043#4 -115881043#2 -115881043#0 -140834255#1 -140834262#1 -26471939#1 -26471938 26471932#0 164051398 203971379#0 203971379#1 -54154922#1 -54154922#0 -42745461#1 -42745461#0 -42745460 -28132014#2 -28132014#0 24978651 115082348#0 115082348#1 115082348#3 115082348#4 257907858#0 27202149 202070427#0 202070427#1 202070427#2 33280103#0 33280103#1 33280103#2 33280103#3 33280103#4 33280103#4.68 97304242#0 97304242#2 97304242#4 97304242#5 97304242#6 97304242#7 28133141 -27761238#2 -28133099" probability="1.00000000"/>
        </routeDistribution>
    </vehicle>
    <vehicle arrivalPos="0.48" arrivalSpeed="0.00" depart="18011.00" departPos="0.50" id="randUni26572:1" type="random_002">
        <routeDistribution last="0">
            <route cost="731.42" edges="23436553#3 -22690205#3 -22690205#2 -22690205#1 233675413#4 233675413#7 -25145013#1 -25145013#0 653473569#5 164051413 124812857#0 201956819#0 201956820 -29497467 -201969576#7 -201969576#6 -201969576#5 -201969576#4 -201969576#1 -201969576#0 -61940355 -24495188 -29458641 -61940356 29458640#0 172517198#0 306396705 174321447 58295043 32923863#2 266607804#0 266607804#1 266607804#2 4819338#0 4819338#1 4819338#2 4819338#4 163586462 28269810#0 28269810#2 28269810#3 28269810#4 30482619 -205182378#7 -205182378#6 -205182378#5 -205182378#4 -205182378#3 -205182378#2 -205182378#0 -32530108#5 -32530108#2 -32530108#1 -390842192#4 -390842192#3 -390842192#1 -141058755#4 -141058755#1 -22486120#1 -22486120#0 -22486118#2 22486126#0 22486126#1 -52361552 -52361537#1 -52361537#0" probability="0.21277829"/>
            <route cost="737.38" edges="23436553#3 -22690205#3 -22690205#2 -22690205#1 233675413#4 233675413#7 -25145013#1 -25145013#0 653473569#5 164051413 124812857#0 201956819#0 201956820 -29497467 -201969576#7 -201969576#6 -201969576#5 -201969576#4 -201969576#1 -201969576#0 -61940355 -24495188 -29458641 -61940356 29458640#0 172517198#0 306396705 174321447 58295043 -39443316#2 39443315#1 4819338#4 163586462 28269810#0 28269810#2 28269810#3 28269810#4 30482619 -205182378#7 -205182378#6 -205182378#5 -205182378#4 -205182378#3 -205182378#2 -205182378#0 -32530108#5 -32530108#2 -32530108#1 -390842192#4 -390842192#3 -390842192#1 -141058755#4 -141058755#1 -22486120#1 -22486120#0 -22486118#2 22486126#0 22486126#1 -52361552 -52361537#1 -52361537#0" probability="0.19999973"/>
            <route cost="745.66" edges="23436553#3 -22690205#3 -22690205#2 -22690205#1 233675413#4 -25145011#2 25145012#6 -25145013#0 653473569#5 164051413 124812857#0 201956819#0 201956820 -29497467 -201969576#7 -201969576#6 -201969576#5 -201969576#4 -201969576#1 -201969576#0 -61940355 -24495188 -29458641 -61940356 29458640#0 172517198#0 306396705 174321447 58295043 -39443316#2 39443315#1 4819338#4 163586462 28269810#0 28269810#2 28269810#3 28269810#4 30482619 -205182378#7 -205182378#6 -205182378#5 -205182378#4 -205182378#3 -205182378#2 -205182378#0 -32530108#5 -32530108#2 -32530108#1 -390842192#4 -390842192#3 -390842192#1 -141058755#4 -141058755#1 -22486120#1 -22486120#0 -22486118#2 22486126#0 22486126#1 -52361552 -52361537#1 -52361537#0" probability="0.19815019"/>
            <route cost="742.15" edges="23436553#3 -22690205#3 -22690205#2 -22690205#1 233675413#4 233675413#7 -25145013#1 25145012#7 104010354 124812857#0 201956819#0 201956820 -29497467 -201969576#7 -201969576#6 -201969576#5 -201969576#4 -201969576#1 -201969576#0 -61940355 -24495188 -29458641 -61940356 29458640#0 172517198#0 306396705 174321447 58295043 32923863#2 266607804#0 266607804#1 266607804#2 4819338#0 4819338#1 4819338#2 4819338#4 163586462 28269810#0 28269810#2 28269810#3 28269810#4 30482619 -205182378#7 -205182378#6 -205182378#5 -205182378#4 -205182378#3 -205182378#2 -205182378#0 -32530108#5 -32530108#2 -32530108#1 -390842192#4 -390842192#3 -390842192#1 -141058755#4 -141058755#1 -22486120#1 -22486120#0 -22486118#2 22486126#0 22486126#1 -52361552 -52361537#1 -52361537#0" probability="0.19583466"/>
            <route cost="749.08" edges="23436553#3 -22690205#3 -22690205#2 -22690205#1 233675413#4 -25145011#2 -25145011#0 653473569#3 653473569#5 164051413 124812857#0 201956819#0 201956820 -29497467 -201969576#7 -201969576#6 -201969576#5 -201969576#4 -201969576#1 -201969576#0 -61940355 -24495188 -29458641 -61940356 29458640#0 172517198#0 306396705 174321447 58295043 32923863#2 266607804#0 266607804#1 266607804#2 4819338#0 4819338#1 4819338#2 4819338#4 163586462 28269810#0 28269810#2 28269810#3 28269810#4 30482619 -205182378#7 -205182378#6 -205182378#5 -205182378#4 -205182378#3 -205182378#2 -205182378#0 -32530108#5 -32530108#2 -32530108#1 -390842192#4 -390842192#3 -390842192#1 -141058755#4 -141058755#1 -22486120#1 -22486120#0 -22486118#2 22486126#0 22486126#1 -52361552 -52361537#1 -52361537#0" probability="0.19323712"/>
        </routeDistribution>
    </vehicle>
    <vehicle arrivalPos="0.00" arrivalSpeed="0.00" depart="18024.00" departPos="33.61" id="h1163c2:1" type="default_002">
        <routeDistribution last="0">
            <route cost="100460.97" edges="389831364 542617943 28418764#0 28418764#0.126 28418764#0.141 28418764#2 32350852#0 32350852#3 32350852#4 51857519#0 161678034#0 161678034#1 161678034#2 161678034#2.30 161678034#2.46 164051429#0 164051429#1 10425611#0 10425611#0.83 10425611#1 203971380 37480109 90587320 90587320.64 201926266 30482638#0 30482638#3 30482638#4 30482638#9 30482638#10 30482638#11 30482638#12 201789799#0 201789799#1 201789799#2 201789798#0 201789798#1 202070435#0 10941820 201880159#0 201880159#1 201880159#2 201789796#0.31 201789796#1 30320943 23622426 -195073412#2 -195073412#1 -195073412#0 195073415 266507536 27550700 27454737 266507535 32930761 146973160 266885714 266885716 266885719 266885719.121 266885713 221257625.670 221257625.683 221257625.1565 221257625.1575" probability="0.20067798"/>
            <route cost="100431.42" edges="389831364 542617943 28418764#0 28418764#0.126 28418764#0.141 28418764#2 32350852#0 32350852#3 32350852#4 51857519#0 161678034#0 161678034#1 161678034#2 161678034#2.30 161678034#2.46 164051429#0 164051429#1 10425611#0 10425611#0.83 10425611#1 203971380 37480109 90587320 90587320.64 201926266 30482638#0 30482638#3 30482638#4 30482638#9 30482638#10 30482638#11 30482638#12 201789797#0 201789797#1 gneE143 25596993#0 25596993#5 149045845 149626676#0 307685696 308849647 266507550 30320943 23622426 -195073412#2 -195073412#1 -195073412#0 195073415 266507536 27550700 27454737 266507535 32930761 146973160 266885714 266885716 266885719 266885719.121 266885713 221257625.670 221257625.683 221257625.1565 221257625.1575" probability="0.20020119"/>
            <route cost="100430.23" edges="389831364 542617943 28418764#0 28418764#0.126 28418764#0.141 28418764#2 32350852#0 32350852#3 32350852#4 51857519#0 161678034#0 161678034#1 161678034#2 161678034#2.30 161678034#2.46 164051429#0 164051429#1 10425611#0 10425611#0.83 10425611#1 203971380 37480109 90587320 90587320.64 201926266 30482638#0 30482638#3 30482638#4 30482638#9 30482638#10 30482638#11 30482638#12 201789797#0 201789797#1 gneE143 149045269#0 149045269#2 149045269#3 201789794#0 201789794#3 308849647 266507550 30320943 23622426 -195073412#2 -195073412#1 -195073412#0 195073415 266507536 27550700 27454737 266507535 32930761 146973160 266885714 266885716 266885719 266885719.121 266885713 221257625.670 221257625.683 221257625.1565 221257625.1575" probability="0.19990473"/>
            <route cost="100434.26" edges="389831364 542617943 28418764#0 28418764#0.126 28418764#0.141 28418764#2 32350852#0 32350852#3 32350852#4 51857519#0 161678034#0 161678034#1 161678034#2 161678034#2.30 161678034#2.46 164051429#0 164051429#1 10425611#0 10425611#0.83 10425611#1 203971380 37480109 90587320 90587320.64 201926266 30482638#0 30482638#3 30482638#4 30482638#9 30482638#10 30482638#11 30482638#12 201789797#0 201789797#1 gneE143 25596993#0 25596993#5 149045845 -149045266 201789796#1 30320943 23622426 -195073412#2 -195073412#1 -195073412#0 195073415 266507536 27550700 27454737 266507535 32930761 146973160 266885714 266885716 266885719 266885719.121 266885713 221257625.670 221257625.683 221257625.1565 221257625.1575" probability="0.19975067"/>
            <route cost="100432.04" edges="389831364 542617943 28418764#0 28418764#0.126 28418764#0.141 28418764#2 32350852#0 32350852#3 32350852#4 51857519#0 161678034#0 161678034#1 161678034#2 161678034#2.30 161678034#2.46 164051429#0 164051429#1 10425611#0 10425611#0.83 10425611#1 203971380 37480109 90587320 90587320.64 201926266 30482638#0 30482638#3 30482638#4 -153692837#5 -153692837#4 -153692837#3 -153692837#2 -153692837#1 -153692837#0 202070429#5 202070429#6 202070429#7 201789794#0 201789794#3 308849647 266507550 30320943 23622426 -195073412#2 -195073412#1 -195073412#0 195073415 266507536 27550700 27454737 266507535 32930761 146973160 266885714 266885716 266885719 266885719.121 266885713 221257625.670 221257625.683 221257625.1565 221257625.1575" probability="0.19946542"/>
        </routeDistribution>
    </vehicle>
    <vehicle arrivalPos="0.00" arrivalSpeed="0.00" depart="18044.00" departPos="20.07" id="h8105c1:1" type="default_002">
        <routeDistribution last="1">
            <route cost="100383.82" edges="-160314346#1 -160314346#0 24634505 24634510#0 24634510#1 24634510#6 24634510#7 24634510#9 24634510#16 -10427692#8 -10427692#7 -10427692#6 -10427692#5 -10427692#4 -10427692#3 -10427692#2 -10427692#1 18809672#0 18809672#2 18809672#5 -37681424#1 -37681424#0 37681425#7 201963522#5 201963522#6 18809673#0 18809673#7 18809673#9 18809673#12 18809673#13 392631301 379718294 164051417#0 107431496#0 107431496#2 107431496#4" probability="0.33313588"/>
            <route cost="100363.52" edges="-160314346#1 -160314346#0 24634505 24634510#0 24634510#1 24634510#6 24634510#7 24634510#9 24634510#16 201238726#0 201238726#0.117 201238726#1 201238729#1 201238729#2 201238729#3 201238729#5 201238729#6 138002148 128361091 379795371 378946906 449057059 449057052 109483352#0 109483352#1 -201238725#5 -201238725#3 -201238725#2 -201238725#1 -164051420#2 -164051420#0 201201947 378946911 27998319 -25341141#3 -25341141#0 -23622107#8 -23622107#7 -23622107#6 -23622107#3 -23622107#2 379718294 164051417#0 107431496#0 107431496#2 107431496#4" probability="0.33382946"/>
            <route cost="100393.33" edges="-160314346#1 -160314346#0 24634505 24634510#0 24634510#1 24634510#6 24634510#7 24634510#9 24634510#16 -10427692#8 -10427692#7 -10427692#6 -10427692#5 -10427692#4 -10427692#3 -10427692#2 -10427692#1 201963533#0 201963533#1 201963533#4 201963533#5 -26642362#5 -26642362#3 -26642362#2 -26642362#1 -26642362#0 -25136986 -18813598#6 -18813598#1 18809673#0 18809673#7 18809673#9 18809673#12 18809673#13 392631301 379718294 164051417#0 107431496#0 107431496#2 107431496#4" probability="0.33303466"/>
        </routeDistribution>
    </vehicle>
    <vehicle arrivalPos="46.16" arrivalSpeed="0.00" depart="18052.00" departPos="28.91" id="h1134c2:1" type="default_002">
        <routeDistribution last="1">
            <route cost="436.59" edges="33697953 156816469 145069270#2 145069298 145069336#2 145069280#0 -145069391 145069286#0 32229741 32229742#1 32229742#3 32229742#4 32229742#5 145069384 -37649447#1 -32202011#1 51856496#8 204388144#0 204388144#1 -33102476 -36689751#2 10425609#0 10425609#1 201963537#1 104010475#0 104012170 -32124745 -32124743 -32124744 -201089423#2 -201089423#1 24693977#0 24693977#1 315392062#0 201238718#0 201238718#1 201238718#2 174800513 201201953#0 40888360#0 -22724699#1 -201201945#2" probability="0.13617546"/>
            <route cost="416.68" edges="33697953 156816469 145069270#2 145069298 145069336#2 145069280#0 -145069391 145069286#0 32229741 32229742#1 32229742#3 32229742#4 32229742#5 145069384 -37649447#1 -32202011#1 51856496#8 204388144#0 204388144#1 18909061#0 389831363#0 32061928#2 32061928#4 24599188#0 24599188#0.75 24599188#0.94 172488482#0 -32124744 -201089423#2 -201089423#1 24693977#0 24693977#1 315392062#0 201238718#0 201238718#1 201238718#2 174800513 201201953#0 40888360#0 -22724699#1 -201201945#2" probability="0.26366183"/>
            <route cost="421.55" edges="33697953 156816469 145069270#2 145069298 145069336#2 145069280#0 -145069391 145069286#0 32229741 32229742#1 32229742#3 32229742#4 32229742#5 145069311#0 145069316#0 145069316#1 145069313#2 -103512667#2 -103512667#1 -103512667#0 103512671 -33102477 18909061#0 389831363#0 32061928#2 32061928#4 24599188#0 24599188#0.75 24599188#0.94 172488482#0 -32124744 -201089423#2 -201089423#1 24693977#0 24693977#1 315392062#0 201238718#0 201238718#1 201238718#2 174800513 201201953#0 40888360#0 -22724699#1 -201201945#2" probability="0.26256173"/>
            <route cost="449.68" edges="33697953 156816469 145069270#2 145069298 145069336#2 145069280#0 -145069391 145069286#0 32229741 32229742#1 32229742#3 32229742#4 32229742#5 145069384 -37649447#1 -32202011#1 51856496#8 204388144#0 204388144#1 18909061#0 389831363#0 32061928#2 32061928#4 24599188#0 24599188#0.75 24599188#0.94 172488482#0 -32124744 -201089423#2 -201089423#1 -32999434#1 32999110#0 32999110#1 -315358253#3 -315358253#2 -315358253#1 -315358253#0 -315358248#1 -315358245 -202092675.36 -4942389#1 -4942389#0 -136436466 386687242 23166741#0 23166741#2 23166741#5 201201953#0 40888360#0 -22724699#1 -201201945#2" probability="0.13935221"/>
            <route cost="446.86" edges="33697953 156816469 145069270#2 145069298 145069336#2 145069280#0 -145069391 145069286#0 32229741 32229742#1 32229742#3 32229742#4 32229742#5 145069384 -37649447#1 -32202011#1 51856496#8 204388144#0 204388144#1 18909061#0 389831363#0 32061928#2 32061928#4 32061928#5 389840420#3 -32978638#3 -32978638#0 32021112#0 168702040#1 168702040#2 168702040#3 168702040#4 -315358253#3 -315358253#2 -315358253#1 -315358253#0 -315358248#1 -315358245 -202092675.36 -4942389#1 -4942389#0 -136436466 386687242 23166741#0 23166741#2 23166741#5 201201953#0 40888360#0 -22724699#1 -201201945#2" probability="0.19824881"/>
        </routeDistribution>
    </vehicle>
    <vehicle arrivalPos="0.00" arrivalSpeed="0.00" depart="18052.00" departPos="17.19" id="h13747c1:1" type="default_002">
        <routeDistribution last="2">
            <route cost="100628.09" edges="25640093#2 -25596974#1 25596855#0 153692837#2 153692837#3 -25597196#6 -25597196#5 -25597196#4 -25597196#3 -25597196#2 -25597196#1 42745460 42745461#0 42745461#1 54154922#0 54154922#1 26071515#0 26071515#1 4324820 164051399 201956817 33279254#1 556434727 542630099 354967545#0.45 354967545#1 141058765#0 141058765#1 141058765#2 141058765#2.33 31624236#0 172700927#0 -48742425#2 -48742425#1 -48742425#0 -205182378#15 -205182378#14 -205182378#13 -205182378#12 -205182378#11 -28269810#6 -28269810#4 -28269810#3 -28269810#2 -28269810#1 -163586462 -4819338#4 -4819338#3 -4819338#1 -4819338#0 266607803#0 266607803#1 266607803#2 266607792#0 266607792#5 200949176#0 200949176#1 116765451#0 116765451#3 390835794#0 390835794#1 266607799 168249926#0 168249926#1 -207091116#1 -71809618#4 -71809618#3 -71809618#2 -28577490#3 -28577490#2 -28577490#1 -28577490#0 -306431425#3 -379521569#6 -379521569#1 -379521569#0 -201950252#1 -315512845#7 -315512845#5 -315512845#3 -315512845#2 -315512845#1 -25699307#1 -315512843#1 -113566916#11 -113566916#10 -113566916#7 13 -113566916#0 113566910 -10427552 26288509#0 26288509#2 26288509#3 26288509#4 26288509#5 26288509#7 26288509#8 26288509#9" probability="0.24883135"/>
            <route cost="100598.67" edges="25640093#2 -25596974#1 25596855#0 153692837#2 153692837#3 -25597196#6 -25597196#5 -25597196#4 -25597196#3 -25597196#2 -25597196#1 42745460 42745461#0 42745461#1 54154922#0 54154922#1 26071515#0 26071515#1 4324820 164051399 201956817 33279254#1 556434727 542630099 354967545#0.45 354967545#1 141058765#0 141058765#1 141058765#2 141058765#2.33 103718178 -201278216#1 -201278214#1 -29458645 -29458645.13 -29458645.28 131118468#0 131118468#0.16 131118468#1 131118468#3 131118468#4 305390335 201278218#0 306396705 -33779209#2 gneE19 -174609517#3 -33814393#3 -26334132#1 -26334127#3 26334133#0 24733323#4 24733323#5 -51244813#3 -51244813#0 -26341775#7 -26341775#6 -26341775#5 -26341775#3 -26341775#1 -26341775#0 -26341775#0.81 -174596151#7 -174596151#6 -174596151#5 -174596151#4 -174596151#3 -174596151#2 -174596151#1 -10427552 26288509#0 26288509#2 26288509#3 26288509#4 26288509#5 26288509#7 26288509#8 26288509#9" probability="0.24977553"/>
            <route cost="100568.33" edges="25640093#2 -25596974#1 25596855#0 153692837#2 153692837#3 -25597196#6 -25597196#5 -25597196#4 -25597196#3 -25597196#2 -25597196#1 42745460 42745461#0 42745461#1 54154922#0 54154922#1 26071515#0 26071515#1 4324820 164051399 201956817 33279254#1 556434727 542630099 354967545#0.45 354967545#1 141058765#0 141058765#1 141058765#2 141058765#2.33 103718178 -201278216#1 -201278214#1 -29458645 -29458645.13 -29458645.28 131118468#0 131118468#0.16 131118468#1 131118468#3 131118468#4 305390335 172515813 201278215 305390333 172515812#0 172517196 -38508400#1 -174609517#3 -33814393#3 -33814393#1 -33814393#0 -391208988 -40623117#2 -51244813#8 -51244813#7 -51244813#6 -51244813#5 -51244813#5.55 -51244813#3 -51244813#0 -26341775#7 -26341775#6 -26341775#5 -26341775#3 -26341775#1 -26341775#0 -26341775#0.81 -174596151#7 -174596151#6 -174596151#5 -174596151#4 -174596151#3 -174596151#2 -174596151#1 -10427552 26288509#0 26288509#2 26288509#3 26288509#4 26288509#5 26288509#7 26288509#8 26288509#9" probability="0.25081945"/>
            <route cost="100567.65" edges="25640093#2 -25596974#1 25596855#0 153692837#2 153692837#3 153692837#4 153692837#5 -30482638#8 -30482638#3 -30482638#2 -201926266 -54154921#3 -54154921#2 54154922#0 54154922#1 26071515#0 26071515#1 4324820 164051399 201956817 33279254#1 556434727 542630099 354967545#0.45 354967545#1 141058765#0 141058765#1 141058765#2 141058765#2.33 103718178 -201278216#1 -201278214#1 -29458645 -29458645.13 -29458645.28 131118468#0 131118468#0.16 131118468#1 131118468#3 131118468#4 305390335 172515813 201278215 305390333 172515812#0 172517196 -38508400#1 -174609517#3 -33814393#3 -33814393#1 -33814393#0 -391208988 -40623117#2 -51244813#8 -51244813#7 -51244813#6 -51244813#5 -51244813#5.55 -51244813#3 -51244813#0 -26341775#7 -26341775#6 -26341775#5 -26341775#3 -26341775#1 -26341775#0 -26341775#0.81 -174596151#7 -174596151#6 -174596151#5 -174596151#4 -174596151#3 -174596151#2 -174596151#1 -10427552 26288509#0 26288509#2 26288509#3 26288509#4 26288509#5 26288509#7 26288509#8 26288509#9" probability="0.25057369"/>
        </routeDistribution>
    </vehicle>
    <vehicle arrivalPos="11.67" arrivalSpeed="0.00" depart="18054.00" departPos="76.25" id="randUni20234:1" type="random_002">
        <routeDistribution last="3">
            <route cost="642.75" edges="175761127#14 175761127#15 28132836#3 25573267#0 25573267#1 -202070429#0 151167728 257907859#0 257907859#1 257907860#0 257907860#1.168 305390325#0 305390325#3 266567304#0 266567301#1 64464420 25955089 64464430 64464399#0 64464399#1 64464432#0 64464432#1 64464432#2 -24991571 -24991573 -11014139#1 -32009683#1 -24972185#9 -24972185#8 -24972185#8.373 -24972185#1 -389840420#4 -389840420#2 -32061928#4 -32061928#3 -32061928#1 18909063#0 18909063#1 -36689751#2 10425609#0 10425609#1 201956819#0 201956810 173169611#1 173169611#4 173169612 26729232#0 26729232#1 201956812 201956813#0 26976693#0 31982132 -140579856#1" probability="0.20657759"/>
            <route cost="616.86" edges="175761127#14 175761127#15 28132836#3 25573267#0 25573267#1 -202070429#0 151167728 257907859#0 257907859#1 -257907858#1 -115082348#5 -115082348#3 -115082348#2 -115082348#0 -24978651 28132014#0 28132014#1 42745460 42745461#0 42745461#1 -24977473#2 -24970784#3 -161678034#2 -161678034#2.33 -161678034#2.50 -161678034#1 -161678034#0 -51857519#1 -32350852#4 -32350852#3 -32350852#1 -28418764#2 -28418764#1 -28418764#0.88 -28418764#0.109 -542617943 -389831364 -102818928#1 -102818928#0 -102818928#0.78 201969576#0 201969576#1 201969576#2 201969576#5 151167738#0 151167738#1 151167738#2 23442105#0 -25076787#1 -25171366#2 -25171366#1 -25171366#0 173169612 26729232#0 26729232#1 201956812 201956813#0 26976693#0 31982132 -140579856#1" probability="0.29611338"/>
            <route cost="620.50" edges="175761127#14 175761127#15 28132836#3 25573267#0 25573267#1 -202070429#0 151167728 257907859#0 257907859#1 -257907858#1 -115082348#5 -115082348#3 -115082348#2 -115082348#0 -24978651 28132014#0 28132014#1 42745460 42745461#0 42745461#1 -24977473#2 -24970784#3 -161678034#2 -161678034#2.33 -161678034#2.50 -161678034#1 -161678034#0 -51857519#1 -32350852#4 -32350852#3 -32350852#1 -28418764#2 -28418764#1 -28418764#0.88 -28418764#0.109 -542617943 -389831364 -102818928#1 -102818928#0 -102818928#0.78 201969576#0 201969576#1 201969576#2 201969576#5 201969576#6 201969576#7 29497467 124812856#0 124812856#1 201956810 173169611#1 173169611#4 173169612 26729232#0 26729232#1 201956812 201956813#0 26976693#0 31982132 -140579856#1" probability="0.27380341"/>
            <route cost="641.53" edges="175761127#14 175761127#15 28132836#3 25573267#0 25573267#1 -202070429#0 151167728 257907859#0 257907859#1 257907860#0 257907860#1.168 305390325#0 25797295#0 -201444272#0 30404130#0 30404130#1 64464420 25955089 64464430 64464399#0 64464399#1 64464432#0 64464432#1 64464432#2 -24991571 -24991573 -11014139#1 -32009683#1 -24972185#9 -24972185#8 -24972185#8.373 -24972185#1 -389840420#4 -389840420#2 -32061928#4 -32061928#3 -32061928#1 18909063#0 18909063#1 -36689751#2 10425609#0 10425609#1 201956819#0 201956810 173169611#1 173169611#4 173169612 26729232#0 26729232#1 201956812 201956813#0 26976693#0 31982132 -140579856#1" probability="0.22350565"/>
        </routeDistribution>
    </vehicle>
    <vehicle arrivalPos="200.00" arrivalSpeed="0.00" depart="18066.00" departPos="178.73" id="h14928c2:1" type="default_002">
        <routeDistribution last="4">
            <route cost="791.34" edges="164051398 203971379#0 203971379#1 -54154922#1 -54154922#0 -42745461#1 -42745461#0 -42745460 -28132014#2 -28132014#0 -116765457#1 -116765457#0 -137463475#1 137463477#0 305390325#0 305390325#3 266567304#0 266567301#1 64464420 25955089 64464430 32009826#0 32009826#1 31342305 30404124 266567307#0 233673425#0 233673425#1 29238186 140684000#0 140684000#1 203127020#0 200741048 248012814 29119850 29119850.70 30399662#0 30399662#1 54169280#0 54169280#1 54169280#2 54169280#3 54169280#4 54169280#6 386687232#0 386687242 23166741#0 23166741#2 23166741#5 201201953#0 201201953#2 201201953#4 201201953#10 201201953#12 176550246 201238729#1 201238729#2 201238729#3 201238729#5 201238729#6 138002148 128361091 379795371 378946906 128361098 -35926528#2 -35926528#1 -130185488#3 -130185488#2 -130185488#0 -136728344#5 -136728344#4 -136728344#3 -136728344#2 -136728344#0 -266561177#1 -266561177#0 -27830333#1 -27830333#0 -266561174#1 -391606911#4 -391606911#3 -391606911#2 -391606911#1 -391606911#0 -325180705#3" probability="0.08986518"/>
            <route cost="754.96" edges="164051398 25188982#0 25192758 90587322#0 -10425611#1 -10425611#0 -10425611#0.35 -164051429#1 -164051429#0 -161678034#2 -161678034#2.33 -161678034#2.50 -161678034#1 -161678034#0 28119593 -24983010#2 -24983010#0 26973015 -145069303#4 -145069303#3 -145069303#1 -145069303#0 -32009683#1 -24972185#9 -24972185#8 -24972185#8.373 -24972185#1 -32978638#3 -32978638#0 32021112#0 168702040#1 168702040#2 -24608846#1 -24608846#0 -160314345#5 -315358245 -202092675.36 -4942389#1 -4942389#0 -136436466 386687242 23166741#0 23166741#2 23166741#5 201201953#0 201201953#2 201201953#4 201201953#10 201201953#12 176550246 201238729#1 201238729#2 201238729#3 201238729#5 201238729#6 138002148 128361091 379795371 378946906 128361098 -35926528#2 -35926528#1 -130185488#3 -130185488#2 -130185488#0 -136728344#5 -136728344#4 -136728344#3 -136728344#2 -136728344#0 -266561177#1 -266561177#0 -27830333#1 -27830333#0 -266561174#1 -391606911#4 -391606911#3 -391606911#2 -391606911#1 -391606911#0 -325180705#3" probability="0.26990647"/>
            <route cost="796.80" edges="164051398 25188982#0 25192758 90587322#0 -10425611#1 -10425611#0 -10425611#0.35 -164051429#1 -164051429#0 -161678034#2 -161678034#2.33 -161678034#2.50 -161678034#1 -161678034#0 28119593 -24983010#2 -24983010#0 26973015 -145069303#4 -145069303#3 -145069303#1 -145069303#0 -32009683#1 -24972185#9 -24972185#8 -24972185#8.373 -24972185#1 -389840420#4 -389840420#2 -32061928#4 -32061928#3 -32061928#1 18909063#0 18909063#1 -36689751#2 10425609#0 10425609#1 201963537#1 -164051413 -653473569#5 25145013#0 -25145012#6 -25145012#5 -22716069#1 -22716069#0 -233675413#1 -233675413#0 -136728347#4 -201963533#5 -201963533#4 -201963533#1 -201963533#1.120 -201963533#1.145 -201963533#0 -285549250#1 -128361102#1 128361107#0 128361107#1 449057056 378946908 128361091 379795371 378946906 128361098 -35926528#2 -35926528#1 -130185488#3 -130185488#2 -130185488#0 -136728344#5 -136728344#4 -136728344#3 -136728344#2 -136728344#0 -266561177#1 -266561177#0 -27830333#1 -27830333#0 -266561174#1 -391606911#4 -391606911#3 -391606911#2 -391606911#1 -391606911#0 -325180705#3" probability="0.10813922"/>