<routes >
    <vType color="red" id="default_007" vClass="passenger"/>
    <vType color="blue" id="random_007" vClass="passenger"/>
    <vehicle arrivalPos="46.98" arrivalSpeed="0.00" depart="30355.00" departPos="63.74" id="h10280c1:1" type="default_007">
        <routeDistribution last="2">
            <route cost="616.51" edges="-32202927#0 -25638527 25796388 32202763 -25638529 25895961 274823622#4 274823622#9 29238188#0 29238188#1 29238188#3 152077572#0 152077572#2 152077572#2.79 54858974 542727960 30399316#0 30399316#0.52 30399316#2 51745097#0 51745097#1 4942660 -4942659#1 24537805#0 64442509#0 128070690 306240160#0 306240160#1 128070667#0 128070667#1 128070665#0 128070665#1 542730346#0 542730346#1 192768914 194377108#0 194377108#0.135 194377108#1 30131200#0 30131200#1 30131201#0 30131201#1 192768909#0 202089408#0 202089408#1 198768615#0 128668757" probability="0.29802399"/>
            <route cost="603.54" edges="-32202927#0 -25638527 25796388 32202763 -25638529 25895961 -274823622#3 25895966#0 25895966#6 29238188#3 152077572#0 152077572#2 152077572#2.79 54858974 542727960 30399316#0 30399316#0.52 30399316#2 51745097#0 51745097#1 4942660 -4942659#1 24537805#0 64442509#0 128070690 306240160#0 306240160#1 128070667#0 128070667#1 128070665#0 128070665#1 542730346#0 542730346#1 192768914 194377108#0 194377108#0.135 194377108#1 30131200#0 30131200#1 30131201#0 30131201#1 192768909#0 202089408#0 202089408#1 198768615#0 128668757" probability="0.32207709"/>
            <route cost="656.42" edges="-32202927#0 -25638527 25796388 32202763 -25638529 25895961 -274823622#3 -274823622#2 -274823622#1 -274823622#0 -274823622#0.68 -31342351#1 31342349#0 31342349#3 542727960 30399316#0 30399316#0.52 30399316#2 51745097#0 51745097#1 4942660 -4942659#1 24537805#0 64442509#0 128070690 306240160#0 306240160#1 128070667#0 128070667#1 128070665#0 128070665#1 542730346#0 542730346#1 192768914 194377108#0 194377108#0.135 194377108#1 30131200#0 30131200#1 30131201#0 30131201#1 192768909#0 202089408#0 202089408#1 198768615#0 128668757" probability="0.37989893"/>
        </routeDistribution>
    </vehicle>
    <vehicle arrivalPos="0.00" arrivalSpeed="0.00" depart="30360.00" departPos="41.44" id="h8870c1:1" type="default_007">
        <routeDistribution last="4">
            <route cost="100508.90" edges="-153692841#2 -25595895#0 -25596855#3 -25596855#1 -153692837#1 25640093#4 25596861#1 25596861#2 25596855#2 25595895#0 153692841#0 153692841#3 153692841#4 -25573260#1 -25573260#0 25640157#0 25640157#1 25640157#2 -92026769#5 -92026769#3 -92026769#2 -92026769#1 -92026769#0 -25895947#1 -25895947#0 202070435#2 202070435#5 202070435#5.37 202070435#5.70 202070435#9 202070435#12 202070435#13 40059576#0 40059576#1 54154971 146973236#0 146973236#1 146973236#2 146973236#5 146973236#6" probability="0.27696061"/>
            <route cost="100306.69" edges="-153692841#2 -25595895#0 25597196#5 25597196#6 25597196#7 25597196#10 25597196#12 -201789797#0 201789799#0 201789799#1 201789799#2 201789798#0 201789798#1 202070435#0 202070435#1 202070435#2 202070435#5 202070435#5.37 202070435#5.70 202070435#9 202070435#12 202070435#13 40059576#0 40059576#1 54154971 146973236#0 146973236#1 146973236#2 146973236#5 146973236#6" probability="0.19344448"/>
            <route cost="100339.99" edges="-153692841#2 25595895#1 30482638#3 30482638#4 30482638#9 30482638#10 30482638#11 30482638#12 201789799#0 201789799#1 201789799#2 201789798#0 201789798#1 202070435#0 202070435#1 202070435#2 202070435#5 202070435#5.37 202070435#5.70 202070435#9 -37192505#2 -37192505#0 -52918687#2 -52918687#1 -52918687#0 -171007007#1 54154971 146973236#0 146973236#1 146973236#2 146973236#5 146973236#6" probability="0.18524308"/>
            <route cost="100315.52" edges="-153692841#2 25595895#1 30482638#3 30482638#4 30482638#9 30482638#10 30482638#11 30482638#12 201789799#0 201789799#1 201789799#2 201789798#0 201789798#1 202070435#0 202070435#1 202070435#2 202070435#5 202070435#5.37 202070435#5.70 202070435#9 202070435#12 202070435#13 40059576#0 40059576#1 54154971 146973236#0 146973236#1 146973236#2 146973236#5 146973236#6" probability="0.17708581"/>
            <route cost="100393.22" edges="-153692841#2 25595895#1 30482638#3 30482638#4 -153692837#5 -153692837#4 -153692837#3 gneE134 -481432711 -41139095 -25596851#6 -25596851#5 -25596851#4 -25596851#3 -25596851#2 -25596851#1 -25596851#0 -201880159#0 25625974 171007004 202070435#0 202070435#1 202070435#2 202070435#5 202070435#5.37 202070435#5.70 202070435#9 202070435#12 202070435#13 40059576#0 40059576#1 54154971 146973236#0 146973236#1 146973236#2 146973236#5 146973236#6" probability="0.16726602"/>
        </routeDistribution>
    </vehicle>
    <vehicle arrivalPos="20.79" arrivalSpeed="0.00" depart="30375.00" departPos="3.25" id="h21209c1:3" type="default_007">
        <routeDistribution last="3">
            <route cost="333.80" edges="145069287#0.136 -103512667#0 103512671 -33102477 -204388144#1 -204388144#0 -137685135 -51856496#7 -51856496#5 -51856496#4 -51856496#3 -51856496#2 -51856496#1 -51856496#0 -390282481 -156923526#3 -156923526#2 -10425610#2 -102818928#1 -102818928#0 -102818928#0.78 -61940355 -24495188 -29458641 -61940356 29458640#0 172517196 -38508400#1 -174609517#3 -33814393#3 -33814393#1 -33814393#0 -391208988 26339462#0 201933877#0 201933878#0 24499968#0 51244813#8 40623117#0 391208988" probability="0.35615329"/>
            <route cost="341.04" edges="145069287#0.136 -103512667#0 103512671 -33102477 -204388144#1 -204388144#0 -137685135 -51856496#7 -51856496#5 -51856496#4 -51856496#3 -51856496#2 -51856496#1 -51856496#0 -390282481 -156923526#3 -156923526#2 -10425610#2 -102818928#1 -102818928#0 -102818928#0.78 -61940355 -24495188 -29458641 -61940356 29458640#0 172517196 -38508400#1 -174609517#3 -33814393#3 -33814393#1 -33814393#0 -391208988 -40623117#2 -51244813#8 -24499968#1 -201933878#1 -201933877#3 -26339462#3 391208988" probability="0.19254600"/>
            <route cost="317.51" edges="145069287#0.136 -103512667#0 103512671 -33102477 -204388144#1 -204388144#0 -137685135 -51856496#7 -51856496#5 -51856496#4 -51856496#3 -51856496#2 -51856496#1 -51856496#0 -390282481 -156923526#3 -156923526#2 -10425610#2 -102818928#1 -102818928#0 -102818928#0.78 -61940355 -24495188 -29458641 -61940356 29458640#0 172517196 -38508400#1 -174609517#3 -33814393#3 -33814393#1 -33814393#0 -23184274#3 24499966#0 24499966#1 -26339462#3 391208988" probability="0.30917089"/>
            <route cost="368.21" edges="145069287#0.136 -103512667#0 103512671 -33102477 -204388144#1 -204388144#0 -137685135 -51856496#7 -51856496#5 -51856496#4 -51856496#3 -51856496#2 -51856496#1 -51856496#0 -390282481 -156923526#3 -156923526#2 -10425610#2 389831364 32124561#0 32124561#1 32124561#3 32124561#4 233673423 28418763 -379723624#1 -379723624#0 -32923867#4 -32923867#3 -32923867#2 -32923867#1 -32923867#0 130996520 130996520.58 172519650 306396705 174321447 58295043 32923863#2 266607804#0 266607804#1 266607804#2 23184274#0 23184274#1 24499966#0 24499966#1 -26339462#3 391208988" probability="0.02919697"/>
            <route cost="348.54" edges="145069287#0.136 -103512667#0 103512671 -33102477 -204388144#1 -204388144#0 -137685135 -51856496#7 -51856496#5 -51856496#4 -51856496#3 -51856496#2 -51856496#1 -51856496#0 -390282481 -156923526#3 -156923526#2 -10425610#2 -102818928#1 -102818928#0 -102818928#0.78 -61940355 -24495188 -29458641 -61940356 29458640#0 172517198#0 306396705 174321447 58295043 32923863#2 266607804#0 266607804#1 266607804#2 23184274#0 23184274#1 24499966#0 24499966#1 -26339462#3 391208988" probability="0.11293287"/>
        </routeDistribution>
    </vehicle>
    <vehicle arrivalPos="48.98" arrivalSpeed="0.00" depart="30376.00" departPos="8.67" id="h9507c1:1" type="default_007">
        <routeDistribution last="0">
            <route cost="703.27" edges="25596855#2 -25597196#4 -25597196#3 -25597196#2 -25597196#1 -28132014#2 -28132014#0 -116765457#1 -116765457#0 -137463475#1 137463477#0 25902677#0 137463478#0 137463478#1 137463478#2 137463478#3 29238188#0 29238188#1 29238188#3 152077572#0 152077572#2 152077572#2.79 54858974 542727960 30399316#0 30399316#0.52 30399316#2 51745097#0 51745097#1 4942660 -4942659#1 24537805#0 64442509#0 128070690 306240160#0 306240160#1 128070667#0 128070667#1 128070665#0 128070665#1 542730346#0 542730346#1 192768914 194377108#0 194377108#0.135 194377108#1 30131200#0 30131200#1 30131201#0 30131201#1 192768909#0 202089408#0 202089408#1 198768615#0 128668757" probability="0.51375291"/>
            <route cost="710.59" edges="25596855#2 -25597196#4 -25597196#3 -25597196#2 -25597196#1 42745460 42745461#0 42745461#1 -24977473#2 164051410#0 164051410#1 32199969#0 32199969#2 32199969#5 32199989#0 32199989#1 323248156#0 25797090#1 201444272#0 201444272#1 201444272#3 29027727#0 29027727#4 29027727#6 29027727#7 29027727#9 152077572#0 152077572#2 152077572#2.79 54858974 542727960 30399316#0 30399316#0.52 30399316#2 51745097#0 51745097#1 4942660 -4942659#1 24537805#0 64442509#0 128070690 306240160#0 306240160#1 128070667#0 128070667#1 128070665#0 128070665#1 542730346#0 542730346#1 192768914 194377108#0 194377108#0.135 194377108#1 30131200#0 30131200#1 30131201#0 30131201#1 192768909#0 202089408#0 202089408#1 198768615#0 128668757" probability="0.17708607"/>
            <route cost="734.39" edges="25596855#2 25595895#0 25595895#1 -30482638#2 -201926266 -54154921#3 -54154921#2 -24977473#2 164051410#0 164051410#1 32199969#0 32199969#2 32199969#5 32199989#0 32199989#1 323248156#0 25797090#1 201444272#0 201444272#1 201444272#3 29027727#0 29027727#4 29027727#6 29027727#7 29027727#9 152077572#0 152077572#2 152077572#2.79 54858974 542727960 30399316#0 30399316#0.52 30399316#2 51745097#0 51745097#1 4942660 -4942659#1 24537805#0 64442509#0 128070690 306240160#0 306240160#1 128070667#0 128070667#1 128070665#0 128070665#1 542730346#0 542730346#1 192768914 194377108#0 194377108#0.135 194377108#1 30131200#0 30131200#1 30131201#0 30131201#1 192768909#0 202089408#0 202089408#1 198768615#0 128668757" probability="0.16818945"/>
            <route cost="801.58" edges="25596855#2 25595895#0 25595895#1 -30482638#2 -201926266 -90587320 -37480109 -90587323 -10425611#1 -10425611#0 -10425611#0.35 -164051429#1 -164051429#0 -161678034#2 -161678034#2.33 -161678034#2.50 -161678034#1 -161678034#0 28119593 -24983010#2 -24983010#0 26973015 -145069303#4 -145069303#3 -145069303#1 -145069303#0 -32009683#1 -24972185#9 -24972185#8 -24972185#8.373 -24972185#1 -32978638#3 -32978638#0 32021112#0 168702040#1 168702040#2 168702040#3 168702040#4 -315358253#3 -315358253#2 -315358253#1 -315358253#0 -315358248#1 -315358245 -202092675.36 -4942389#1 -4942389#0 -136436466 -315358251#1 -315358251#0 -315358242#2 -315358242#1 -315358242#0 -129379925 -129379918#1 -315358252#1 -129379922 -315358246 -129379920#1 -129379920#0 -129379921#1 -129379921#0 -315358250#1 -315358250#0 -379897806 -164078530 -315358244 -129379923 -315358243 -164078531#2 -164078531#1 -164078531#0 -164078531#0.84 -156788416#1 -627181818#1 -627181818#0 -32061997#2 -32061997#0 -542769276#1 -136618613#1 -136618613#0 -35744086#2 -126909938 -614568192 -126909931 -126909931.208 -25508272#0 gneE152 gneE151 gneE151.97 192768907 202089408#0 202089408#1 198768615#0 128668757" probability="0.08402842"/>
            <route cost="708.40" edges="25596855#2 -25597196#4 -25597196#3 -25597196#2 -25597196#1 -28132014#2 -28132014#0 -116765457#1 -116765457#0 -137463475#1 137463477#0 305390325#0 25797295#0 201444272#1 201444272#3 29027727#0 29027727#4 29027727#6 29027727#7 29027727#9 152077572#0 152077572#2 152077572#2.79 54858974 542727960 30399316#0 30399316#0.52 30399316#2 51745097#0 51745097#1 4942660 -4942659#1 24537805#0 64442509#0 128070690 306240160#0 306240160#1 128070667#0 128070667#1 128070665#0 128070665#1 542730346#0 542730346#1 192768914 194377108#0 194377108#0.135 194377108#1 30131200#0 30131200#1 30131201#0 30131201#1 192768909#0 202089408#0 202089408#1 198768615#0 128668757" probability="0.05694316"/>
        </routeDistribution>
    </vehicle>
    <vehicle arrivalPos="4.69" arrivalSpeed="0.00" depart="30377.00" departPos="12.68" id="h10506c1:1" type="default_007">
        <routeDistribution last="3">
            <route cost="681.05" edges="25796964#1 -25796964#1 -25796964#0 32202927#1 25797315#1 25797315#2 -274823622#7 -274823622#3 -274823622#2 -274823622#1 -274823622#0 -274823622#0.68 -31342351#1 31342349#0 31342349#3 542727960 30399316#0 30399316#0.52 30399316#2 51745097#0 51745097#1 4942660 -4942659#1 24537805#0 64442509#0 128070690 306240160#0 306240160#1 128070667#0 128070667#1 128070665#0 128070665#1 542730346#0 542730346#1 192768914 194377108#0 194377108#0.135 194377108#1 30131200#0 30131200#1 30131201#0 30131201#1 192768909#0 202089408#0 202089408#1 198768615#0 128668757" probability="0.17226262"/>
            <route cost="632.09" edges="25796964#1 -25796964#1 -25796964#0 32202927#1 32202927#2 137463478#2 137463478#3 29238188#0 -25665374 29027727#6 29027727#7 29027727#9 152077572#0 152077572#2 152077572#2.79 54858974 542727960 30399316#0 30399316#0.52 30399316#2 51745097#0 51745097#1 4942660 -4942659#1 24537805#0 64442509#0 128070690 306240160#0 306240160#1 128070667#0 128070667#1 128070665#0 128070665#1 542730346#0 542730346#1 192768914 194377108#0 194377108#0.135 194377108#1 30131200#0 30131200#1 30131201#0 30131201#1 192768909#0 202089408#0 202089408#1 198768615#0 128668757" probability="0.20135609"/>
            <route cost="596.15" edges="25796964#1 -25796964#1 -25796964#0 32202927#1 32202927#2 137463478#2 137463478#3 29238188#0 29238188#1 29238188#3 152077572#0 152077572#2 152077572#2.79 54858974 542727960 30399316#0 30399316#0.52 30399316#2 51745097#0 51745097#1 4942660 -4942659#1 24537805#0 64442509#0 128070690 306240160#0 306240160#1 128070667#0 128070667#1 128070665#0 128070665#1 542730346#0 542730346#1 192768914 194377108#0 194377108#0.135 194377108#1 30131200#0 30131200#1 30131201#0 30131201#1 192768909#0 202089408#0 202089408#1 198768615#0 128668757" probability="0.28082311"/>
            <route cost="628.27" edges="25796964#1 -25796964#1 -25796964#0 32202927#1 25797315#1 25797315#2 -274823622#7 -274823622#3 25895966#0 25895966#6 29238188#3 152077572#0 152077572#2 152077572#2.79 54858974 542727960 30399316#0 30399316#0.52 30399316#2 51745097#0 51745097#1 4942660 -4942659#1 24537805#0 64442509#0 128070690 306240160#0 306240160#1 128070667#0 128070667#1 128070665#0 128070665#1 542730346#0 542730346#1 192768914 194377108#0 194377108#0.135 194377108#1 30131200#0 30131200#1 30131201#0 30131201#1 192768909#0 202089408#0 202089408#1 198768615#0 128668757" probability="0.15971084"/>
            <route cost="602.88" edges="25796964#1 -25796964#1 -137463474#1 -137463474#0 137463478#0 137463478#1 137463478#2 137463478#3 29238188#0 29238188#1 29238188#3 152077572#0 152077572#2 152077572#2.79 54858974 542727960 30399316#0 30399316#0.52 30399316#2 51745097#0 51745097#1 4942660 -4942659#1 24537805#0 64442509#0 128070690 306240160#0 306240160#1 128070667#0 128070667#1 128070665#0 128070665#1 542730346#0 542730346#1 192768914 194377108#0 194377108#0.135 194377108#1 30131200#0 30131200#1 30131201#0 30131201#1 192768909#0 202089408#0 202089408#1 198768615#0 128668757" probability="0.18584732"/>
        </routeDistribution>
    </vehicle>
    <vehicle arrivalPos="230.00" arrivalSpeed="0.00" depart="30392.00" departPos="82.04" id="h1829c1:1" type="default_007">
        <routeDistribution last="0">
            <route cost="801.54" edges="25145014#1 25187891 233675413#0 233675413#1 233675413#2 233675413#3 233675413#4 233675413#7 -25145013#1 -25145013#0 653473569#5 164051413 124812857#0 201956819#0 201956820 -29497467 -201969576#7 -201969576#6 -201969576#5 -201969576#4 -201969576#1 -201969576#0 -61940355 -24495188 -29458641 -61940356 29458640#0 172517198#0 306396705 174321447 58295043 32923863#2 266607804#0 266607804#1 266607804#2 266607803#0 266607803#1 266607803#2 266607792#0 266607792#5 200949176#0 200949176#1 116765451#0 116765451#3 390835794#0 390835794#1 266607799 168249926#0 168249926#1 29027936#0 29027936#1 233673413#0 233673413#1 207091130 207091132#0 207091132#1 207091132#2 207091132#3 207091132#4 266607796 266607798 233673420#0 233673420#1 201243230#0 201243230#1 233673410#0 233673410#1 233673410#5 233673410#6 266607801#0 266607801#1 266607802#0 266607802#1 266607795#0 266607795#1 266607795#6 266607800#0 201243226#0 266607805#0 266607805#1 41494424#0 233673422#0 233673422#2 233673422#4 233673422#5 233673422#7 233673422#9" probability="0.20477501"/>
            <route cost="796.01" edges="25145014#1 25145014#2 -25209894#1 25145012#0 25145012#1 25145012#2 25145012#3 25145012#4 22716069#2 653473569#2 653473569#3 653473569#5 164051413 124812857#0 201956819#0 201956820 -29497467 -201969576#7 -201969576#6 -201969576#5 -201969576#4 -201969576#1 -201969576#0 -61940355 -24495188 -29458641 -61940356 29458640#0 172517198#0 306396705 174321447 58295043 32923863#2 266607804#0 266607804#1 266607804#2 266607803#0 266607803#1 266607803#2 266607792#0 266607792#5 200949176#0 200949176#1 116765451#0 116765451#3 390835794#0 390835794#1 266607799 168249926#0 168249926#1 -207091116#1 25375417#0 25375417#6 25375417#7 25375417#8 25375417#9 25375417#10 25375417#11 25375417#12 -25375814#1 233673410#6 266607801#0 266607801#1 266607802#0 266607802#1 266607795#0 266607795#1 266607795#6 266607800#0 201243226#0 266607805#0 266607805#1 41494424#0 233673422#0 233673422#2 233673422#4 233673422#5 233673422#7 233673422#9" probability="0.20211202"/>
            <route cost="797.65" edges="25145014#1 25187891 233675413#0 233675413#1 22716069#0 22716069#1 22716069#2 653473569#2 653473569#3 653473569#5 164051413 124812857#0 201956819#0 201956820 -29497467 -201969576#7 -201969576#6 -201969576#5 -201969576#4 -201969576#1 -201969576#0 -61940355 -24495188 -29458641 -61940356 29458640#0 172517198#0 306396705 174321447 58295043 32923863#2 266607804#0 266607804#1 266607804#2 266607803#0 266607803#1 266607803#2 266607792#0 266607792#5 200949176#0 200949176#1 116765451#0 116765451#3 390835794#0 390835794#1 266607799 168249926#0 168249926#1 29027936#0 29027936#1 233673413#0 233673413#1 207091130 207091132#0 207091132#1 207091132#2 207091132#3 207091132#4 266607796 266607798 233673420#0 233673420#1 201243230#0 201243230#1 233673410#0 233673410#1 233673410#5 233673410#6 266607801#0 266607801#1 266607802#0 266607802#1 266607795#0 266607795#1 266607795#6 266607800#0 201243226#0 266607805#0 266607805#1 41494424#0 233673422#0 233673422#2 233673422#4 233673422#5 233673422#7 233673422#9" probability="0.20067158"/>
            <route cost="794.28" edges="25145014#1 25187891 233675413#0 233675413#1 22716069#0 22716069#1 22716069#2 653473569#2 653473569#3 653473569#5 164051413 124812857#0 201956819#0 201956820 -29497467 -201969576#7 -201969576#6 -201969576#5 -201969576#4 -201969576#1 -201969576#0 -61940355 -24495188 -29458641 -61940356 29458640#0 172517198#0 306396705 174321447 58295043 32923863#2 266607804#0 266607804#1 266607804#2 266607803#0 266607803#1 266607803#2 266607792#0 266607792#5 200949176#0 200949176#1 116765451#0 116765451#3 390835794#0 390835794#1 266607799 26339624#0 26339624#2 26339623#5 71809618#4 25375417#0 25375417#6 25375417#7 25375417#8 25375417#9 25375417#10 25375417#11 25375417#12 -25375814#1 233673410#6 266607801#0 266607801#1 266607802#0 266607802#1 266607795#0 266607795#1 266607795#6 266607800#0 201243226#0 266607805#0 266607805#1 41494424#0 233673422#0 233673422#2 233673422#4 233673422#5 233673422#7 233673422#9" probability="0.19885295"/>
            <route cost="797.63" edges="25145014#1 25145014#2 -25209894#1 25145012#0 25145012#1 25145012#2 25145012#3 25145012#4 25145012#5 -25145011#0 653473569#3 653473569#5 164051413 124812857#0 201956819#0 201956820 -29497467 -201969576#7 -201969576#6 -201969576#5 -201969576#4 -201969576#1 -201969576#0 -61940355 -24495188 -29458641 -61940356 29458640#0 172517198#0 306396705 174321447 58295043 32923863#2 266607804#0 266607804#1 266607804#2 266607803#0 266607803#1 266607803#2 266607792#0 266607792#5 200949176#0 200949176#1 116765451#0 116765451#3 390835794#0 390835794#1 266607799 26339624#0 26339624#2 26339623#5 71809618#4 25375417#0 25375417#6 25375417#7 25375417#8 25375417#9 25375417#10 25375417#11 25375417#12 -25375814#1 233673410#6 266607801#0 266607801#1 266607802#0 266607802#1 266607795#0 266607795#1 266607795#6 266607800#0 201243226#0 266607805#0 266607805#1 41494424#0 233673422#0 233673422#2 233673422#4 233673422#5 233673422#7 233673422#9" probability="0.19358844"/>
        </routeDistribution>
    </vehicle>
    <vehicle arrivalPos="230.00" arrivalSpeed="0.00" depart="30409.00" departPos="124.24" id="h2292c2:1" type="default_007">
        <routeDistribution last="2">
            <route cost="823.24" edges="-23436553#2 -23436553#1 -22690205#1 233675413#4 233675413#7 -25145013#1 -25145013#0 653473569#5 164051413 124812857#0 201956819#0 201956820 -29497467 -201969576#7 -201969576#6 -201969576#5 -201969576#4 -201969576#1 -201969576#0 -61940355 -24495188 -29458641 -61940356 29458640#0 172517198#0 306396705 174321447 58295043 32923863#2 266607804#0 266607804#1 266607804#2 266607803#0 266607803#1 266607803#2 266607792#0 266607792#5 200949176#0 200949176#1 116765451#0 116765451#3 390835794#0 390835794#1 266607799 168249926#0 168249926#1 29027936#0 29027936#1 233673413#0 233673413#1 207091130 207091132#0 207091132#1 207091132#2 207091132#3 207091132#4 266607796 266607798 233673420#0 233673420#1 201243230#0 201243230#1 233673410#0 233673410#1 233673410#5 233673410#6 266607801#0 266607801#1 266607802#0 266607802#1 266607795#0 266607795#1 266607795#6 266607800#0 201243226#0 266607805#0 266607805#1 41494424#0 233673422#0 233673422#2 233673422#4 233673422#5 233673422#7 233673422#9" probability="0.20952710"/>
            <route cost="824.84" edges="-23436553#2 -23436553#1 -22690205#1 233675413#4 -25145011#2 -25145011#0 653473569#3 653473569#5 164051413 124812857#0 201956819#0 201956820 -29497467 -201969576#7 -201969576#6 -201969576#5 -201969576#4 -201969576#1 -201969576#0 -61940355 -24495188 -29458641 -61940356 29458640#0 172517198#0 306396705 174321447 58295043 32923863#2 266607804#0 266607804#1 266607804#2 266607803#0 266607803#1 266607803#2 266607792#0 266607792#5 200949176#0 200949176#1 116765451#0 116765451#3 390835794#0 390835794#1 266607799 168249926#0 168249926#1 29027936#0 29027936#1 233673413#0 233673413#1 207091130 207091132#0 207091132#1 207091132#2 207091132#3 207091132#4 266607796 266607798 233673420#0 233673420#1 201243230#0 201243230#1 233673410#0 233673410#1 233673410#5 233673410#6 266607801#0 266607801#1 266607802#0 266607802#1 266607795#0 266607795#1 266607795#6 266607800#0 201243226#0 266607805#0 266607805#1 41494424#0 233673422#0 233673422#2 233673422#4 233673422#5 233673422#7 233673422#9" probability="0.20855003"/>
            <route cost="817.43" edges="-23436553#2 -23436553#1 -22690205#1 233675413#4 233675413#7 -25145013#1 -25145013#0 653473569#5 164051413 124812857#0 201956819#0 201956820 -29497467 -201969576#7 -201969576#6 -201969576#5 -201969576#4 -201969576#1 -201969576#0 -61940355 -24495188 -29458641 -61940356 29458640#0 172517198#0 306396705 174321447 58295043 32923863#2 266607804#0 266607804#1 266607804#2 266607803#0 266607803#1 266607803#2 266607792#0 266607792#5 200949176#0 200949176#1 116765451#0 116765451#3 390835794#0 390835794#1 266607799 26339624#0 26339624#2 26339623#5 71809618#4 25375417#0 25375417#6 25375417#7 25375417#8 25375417#9 25375417#10 25375417#11 25375417#12 -25375814#1 233673410#6 266607801#0 266607801#1 266607802#0 266607802#1 266607795#0 266607795#1 266607795#6 266607800#0 201243226#0 266607805#0 266607805#1 41494424#0 233673422#0 233673422#2 233673422#4 233673422#5 233673422#7 233673422#9" probability="0.20395692"/>
            <route cost="819.72" edges="-23436553#2 -23436553#1 -22690205#1 233675413#4 233675413#7 -25145013#1 -25145013#0 653473569#5 164051413 124812857#0 201956819#0 201956820 -29497467 -201969576#7 -201969576#6 -201969576#5 -201969576#4 -201969576#1 -201969576#0 -61940355 -24495188 -29458641 -61940356 29458640#0 172517198#0 306396705 174321447 58295043 32923863#2 266607804#0 266607804#1 266607804#2 266607803#0 266607803#1 266607803#2 266607792#0 266607792#5 200949176#0 200949176#1 116765451#0 116765451#3 390835794#0 390835794#1 266607799 168249926#0 168249926#1 -207091116#1 25375417#0 25375417#6 25375417#7 25375417#8 25375417#9 25375417#10 25375417#11 25375417#12 -25375814#1 233673410#6 266607801#0 266607801#1 266607802#0 266607802#1 266607795#0 266607795#1 266607795#6 266607800#0 201243226#0 266607805#0 266607805#1 41494424#0 233673422#0 233673422#2 233673422#4 233673422#5 233673422#7 233673422#9" probability="0.20026396"/>
            <route cost="863.32" edges="-23436553#2 -23436553#1 -22690205#1 233675413#4 233675413#7 -25145013#1 -25145013#0 653473569#5 164051413 124812857#0 201956811#0 36689751#0 33102476 173148224#1 -137685135 -51856496#7 -51856496#5 -51856496#4 -51856496#3 -51856496#2 -51856496#1 -51856496#0 -390282481 -156923526#3 -156923526#2 -10425610#2 -102818928#1 -102818928#0 -102818928#0.78 -61940355 -24495188 -29458641 -61940356 29458640#0 172517198#0 306396705 174321447 58295043 32923863#2 266607804#0 266607804#1 266607804#2 266607803#0 266607803#1 266607803#2 266607792#0 266607792#5 200949176#0 200949176#1 116765451#0 116765451#3 390835794#0 390835794#1 266607799 26339624#0 26339624#2 26339623#5 71809618#4 25375417#0 25375417#6 25375417#7 25375417#8 25375417#9 25375417#10 25375417#11 25375417#12 -25375814#1 233673410#6 266607801#0 266607801#1 266607802#0 266607802#1 266607795#0 266607795#1 266607795#6 266607800#0 201243226#0 266607805#0 266607805#1 41494424#0 233673422#0 233673422#2 233673422#4 233673422#5 233673422#7 233673422#9" probability="0.17770200"/>
        </routeDistribution>
    </vehicle>
    <vehicle arrivalPos="0.00" arrivalSpeed="0.00" depart="30416.00" departPos="64.66" id="h3820c1:1" type="default_007">
        <routeDistribution last="4">
            <route cost="100756.97" edges="24634414#2 24634414#3 24634414#4 -37386279 -24634413#2 -24634413#1 -160314345#1 -160314345#0 201238718#0 201238718#1 201238718#2 174800513 201201953#0 201201953#2 201201953#4 201201953#10 201201953#12 176550246 201238729#1 201238729#2 201238729#3 201238729#5 201238729#6 138002148 128361091 379795371 378946906 128361098 -35926528#2 -35926528#1 -130185488#3 -130185488#2 -130185488#0 -136728344#5 -136728344#4 -136728344#3 -136728344#2 -136728344#0 -266561177#1 -266561177#0 -27830333#1 -27830333#0 -266561178#1 -307562643#2 -307562643#1 37255726#0 37255737#0 37255730 37255717#7 -37255678#3 131724120#0 131724120#1 -136728353 -37255672 18809237#0 18809237#1 139516076 139516077#0" probability="0.20101194"/>
            <route cost="100503.43" edges="24634414#2 24634414#3 24634414#4 -37386279 -24634413#2 -24634413#1 -160314345#1 -160314345#0 -160314346#1 -160314346#0 24634505 24634510#0 24634510#1 24634510#6 24634510#7 24634510#9 24634510#16 201238726#0 201238726#0.117 201238726#1 201238719#0 170018165#0 170018165#1 170018165#2 170018165#2.175 306240162#0 306240162#4 148352067 193806654 193806654.200 193806654.211 193806654.258 193806654.273 148351766 220013328 139429268 320733893 4396674#0 4396674#1 125002584#0 125002584#2 297778952 314970097 314970098#0 gneE9 305397289#1 379795390#2 379795389 391606915 161783479#0 -320733897#1 gneE6 161783478#0 161783478#1 26320091 8033475#0 148596540#0 18809237#0 18809237#1 139516076 139516077#0" probability="0.20027387"/>
            <route cost="100504.31" edges="24634414#2 24634414#3 24634414#4 -37386279 -24634413#2 -24634413#1 -160314345#1 -160314345#0 -160314346#1 -160314346#0 24634505 24634510#0 24634510#1 24634510#6 24634510#7 24634510#9 24634510#16 201238726#0 201238726#0.117 201238726#1 201238719#0 170018165#0 170018165#1 170018165#2 170018165#2.175 306240162#0 306240162#4 148352067 193806654 193806654.200 193806654.211 193806654.258 193806654.273 148351766 220013328 139429268 320733893 4396674#0 4396674#1 125002584#0 125002584#2 297778952 297594879#0 297594879#2 -320733895#1 -161783475#6 -161783475#5 305397288#0 379795387#2 379795386 26320091 8033475#0 148596540#0 18809237#0 18809237#1 139516076 139516077#0" probability="0.20005685"/>
            <route cost="100495.30" edges="24634414#2 24634416 -315358253#0 -315358248#1 -315358245 -202092675.36 -4942389#1 -4942389#0 -136436466 386687242 23166741#0 23166741#2 23166741#5 201201945#0 201201945#1 201201945#2 201201945#3 201201945#7 201201945#8 201089420#0 315358257#0 315358257#0.43 -315358255#4 -286646456#2 -286646456#0 -224251774#1 -224251774#0 224251776#0 306240162#0 306240162#4 148352067 193806654 193806654.200 193806654.211 193806654.258 193806654.273 148351766 220013328 139429268 320733893 4396674#0 4396674#1 125002584#0 125002584#2 297778952 314970097 314970098#0 gneE9 305397289#1 379795390#2 379795389 391606915 161783479#0 -320733897#1 gneE6 161783478#0 161783478#1 26320091 8033475#0 148596540#0 18809237#0 18809237#1 139516076 139516077#0" probability="0.19938732"/>
            <route cost="100493.80" edges="24634414#2 24634416 -315358253#0 -315358248#1 -315358245 -202092675.36 -4942389#1 -4942389#0 -136436466 386687242 23166741#0 23166741#2 23166741#5 201201945#0 201201945#1 201201945#2 201201945#3 201201945#7 201201945#8 201089420#0 315358257#0 315358257#0.43 -315358255#4 -286646456#2 -286646456#0 -224251774#1 -224251774#0 224251776#0 306240162#0 306240162#4 148352067 193806654 193806654.200 193806654.211 193806654.258 193806654.273 148351766 220013328 139429268 320733893 4396674#0 4396674#1 125002584#0 125002584#2 297778952 297594879#0 297594879#2 -320733895#1 -161783475#6 -161783475#5 305397288#0 379795387#2 379795386 26320091 8033475#0 148596540#0 18809237#0 18809237#1 139516076 139516077#0" probability="0.19927004"/>
        </routeDistribution>
    </vehicle>