<routes >
    <vType color="red" id="default_018" vClass="passenger"/>
    <vType color="blue" id="random_018" vClass="passenger"/>
    <vehicle arrivalPos="0.00" arrivalSpeed="0.00" depart="60956.00" departPos="37.93" id="h3455c2:1" type="default_018">
        <routeDistribution last="0">
            <route cost="311941.70" edges="-24608842#2 -24608842#0 -25955175#0 266565295#4 266565295#5 32999435 29236658#2 -24608844 -160314345#6 24608846#0 24608846#1 168702040#3 168702040#4 168702039#0 168702039#1 32999434#0 201089423#0 201089423#2 32124744 32124743 285716192#0 285716192#0.83 201963535 104010354 124812857#0 201956819#0 201956820 -29497467 25117288#0 33102205#0 -25194376#2 25076749#0 25076749#1 -25182154 33102205#3 136728366#0 136728366#1 136728351#0 136728351#1 -201969576#1 -201969576#0 102818925 102818928#1 389831364 32124561#0 32124561#1 32124561#3 32124561#4 233673423 28418763 -379723624#1 -379723624#0 -32923867#4 -32923867#3 -32923867#2 -32923867#1 -32923867#0 130996520 130996520.58 172519650 306396705 -33779209#2 gneE19 -26334127#7 -26334127#4 -26334127#3 26334133#0 24733323#4 24733323#5 -51244813#3 -51244813#0 -26341775#7 -26341775#6 -26341775#5 -26341775#3 -26341775#1 -26341775#0 -26341775#0.81 -51244816 -201559932 -51244815#3 -51244815#2 -51244815#1 -51180454#5 26334887#0 26334887#3 26334887#4 26334887#6 26334846#3 gneE95 gneE90 gneE29 gneE76 54606427#0 54606427#1 54606422#0 54606422#1 54606422#3" probability="0.33442880"/>
            <route cost="107448.69" edges="-24608842#2 -24608842#0 -25955175#0 -266565295#3 -266565295#2 -266565295#1 -266565295#0 -266565299 -24977590#1 -24977590#0 -233673425#1 -233673425#0 -266567307#1 -30404124 30417892 266567308#0 64464384#1 32009827 266567303 266567294#0 31342064#1 31342064#1.83 31894763#0 137463475#0 116765457#0 116765457#1 28132014#0 28132014#1 42745460 42745461#0 42745461#1 54154922#0 54154922#1 26071515#0 26071515#1 4324820 164051399 201956817 33279254#1 556434727 542630099 354967545#0.45 354967545#1 -25188983#1 -25188983#0 -354967514#2 -168243629#2 -168243629#1 141058765#2 141058765#2.33 103718178 -201278216#1 -201278214#1 -29458645 -29458645.13 -29458645.28 131118468#0 131118468#0.16 131118468#1 131118468#3 131118468#4 305390335 201278218#0 306396705 -33779209#2 gneE19 -174609517#3 -33814393#3 -33814393#1 -33814393#0 -391208988 26339462#0 201933880#0 201933880#3 26339468#0 26339468#2 -26814848#3 26339473#1 26339478#2 26339478#3 26339478#4 390835794#1 266607799 168249926#0 168249926#1 29027936#0 29027936#1 233673413#0 233673413#1 207091130 207091132#0 207091132#1 207091132#2 207091132#3 207091132#4 266607796 266607798 233673420#0 233673420#1 -60100821#5 -60100821#3 -60100821#0 -391029004#2 -391029004#1 -391029004#0 -391208987#1 -391029003 23291898#0 23291898#1 23291898#2 23291898#3 23291898#4 156041643#0 155847370 -23183649#0 -32296322#1 -32296322#0 54606422#0 54606422#1 54606422#3" probability="0.26657838"/>
            <route cost="124667.49" edges="-24608842#2 24608843 42745545#4 -25955175#2 -25955175#1 24608842#0 24608842#1 24608844 32124634 32124637#1 51857518#1 32978638#0 32978638#1 -389840420#4 -389840420#2 -32061928#4 -32061928#3 -32061928#1 -18909061#1 -204388144#1 -204388144#0 -137685135 -51856496#7 -51856496#5 -51856496#4 -51856496#3 -51856496#2 -51856496#1 -51856496#0 -390282481 -156923526#3 -156923526#2 -10425610#2 -102818928#1 -102818928#0 -102818928#0.78 -61940355 -24495188 -29458641 -61940356 29458640#0 172517196 -38508400#1 gneE20 33779209#1 174321447 58295043 32923863#2 266607804#0 266607804#1 266607804#2 266607803#0 266607803#1 266607803#2 266607792#0 266607792#5 200949176#0 200949176#1 116765451#0 116765451#3 390835794#0 390835794#1 266607799 26339624#0 26339624#2 26339623#5 71809618#4 25375417#0 25375417#6 42508858#2 -25544013#0 -391029004#2 -391029004#1 -391029004#0 -391208987#1 -391029003 23291898#0 23291898#1 23291898#2 23291898#3 23291898#4 156041643#0 155847370 -23183649#0 -32296322#1 -32296322#0 54606422#0 54606422#1 54606422#3" probability="0.23121228"/>
            <route cost="157075.70" edges="-24608842#2 -24608842#0 -25955175#0 -266565295#3 -266565295#2 -266565295#1 -266565295#0 -266565299 -24977590#1 -24977590#0 -380273343 -266565302 -24537982#4 -24537982#3 -24537982#2 -24537982#1 -31343367#1 -29027839#2 -29027839#1 -51856492#2 -29238184#1 -145069300#1 -145069300#1.112 51856495#0 29458096 108239938 104236369 145069323#0 32230349#0 145069347#0 103512671 -33102477 -33102476 -36689751#2 10425609#0 10425609#1 201956819#0 201956820 -29497467 -201969576#7 -201969576#6 151167738#0 136728366#1 136728351#0 136728351#1 -201969576#1 -201969576#0 -61940355 -24495188 -29458641 -61940356 29458640#0 172517196 -38508400#1 -174609517#3 -33814393#3 -33814393#1 -33814393#0 -391208988 -40623117#2 -51244813#8 -51244813#7 -26416599 -26416600#2 -26416600#0 201933881#3 201933881#6 26356922#0 26356922#2 25375770#6 25375770#10 25375770#11 25375770#12 26450419#2 26450419#3 55691388#0 55691388#1 55691387 26346716#0 201950260 306431423#0 306431423#1 61738383 61738382#0 54606430 54606427#0 54606427#1 54606422#0 54606422#1 54606422#3" probability="0.09445222"/>
            <route cost="189670.85" edges="-24608842#2 -24608842#0 -25955175#0 -266565295#3 -266565295#2 -266565295#1 -266565295#0 -266565299 -24977590#1 -24977590#0 -233673425#1 -233673425#0 -266567307#1 -30404124 30417892 64464397#0 64464432#2 -24991571 -24991573 -11014139#1 145069303#0 145069303#1 145069303#2 145069303#4 -26973015 24983010#0 24983010#1 161678033#0 -32350852#4 -32350852#3 -32350852#1 -28418764#2 -28418764#1 -28418764#0.88 -28418764#0.109 -542617943 -389831364 -102818928#1 -102818928#0 -102818928#0.78 -61940355 -24495188 -29458641 -61940356 29458640#0 172517196 -38508400#1 -174609517#3 -33814393#3 -33814393#1 -33814393#0 -391208988 26339462#0 201933880#0 201933880#3 26339468#0 26339468#2 -26814848#3 26339473#1 26339478#2 26339623#4 26339623#5 -71809618#3 -71809618#2 -28577490#3 -28577490#2 -28577490#1 -28577490#0 -306431425#3 -379521569#6 -379521569#1 -379521569#0 -201950252#1 -315512845#7 -315512845#5 -315512845#3 -315512845#2 -315512845#1 28269079#0 28269093#0 28269093#1 -51180454#1 -51180454#0 26346716#0 201950260 306431423#0 306431423#1 61738383 61738382#0 54606430 54606427#0 54606427#1 54606422#0 54606422#1 54606422#3" probability="0.07332832"/>
        </routeDistribution>
    </vehicle>
    <vehicle arrivalPos="36.98" arrivalSpeed="0.00" depart="60959.00" departPos="99.68" id="h12501c1:5" type="default_018">
        <routeDistribution last="0">
            <route cost="9153.45" edges="-32923867#0 130996520 130996520.58 172519650 305390333 172515812#0 306086241 61940356 172515808 24495188 61940355 201969576#0 201969576#1 201969576#2 201969576#5 201969576#6 201969576#7 29497467 124812856#0 124812856#1 201956810 25149001#0 25149001#1 25149001#3 25149001#4 25149001#5 -653473569#0 -653473568#1 -653473568#0 -18813598#8 -18813598#7 -18813598#6 -18813598#1 18809673#0 23621955#0 23621955#2 23621955#3 23621955#6 23621955#8 23621955#10 42487766#0 201201940#0 201201940#3 128361093#0 449057060 35926529 449057056 60931370 213252671#0 128361109#0 128361109#1 128361109#3 128361109#4 201238719#0 170018165#0 -224892361#8 -224892361#6 -224892361#2 -224892361#1 286646456#1 315358255#0 -315358257#2 -315358257#0.26 25117391#0 25117391#2 -201950259#6 -201950259#3 26677214#0 26677214#3 54169231#0 54169231#1 54169231#2 26677216#1 26677216#2 -53396619#6 -53396619#5 201950247#4 201950247#5 201950247#6 201950247#7 201950247#8 315358242#3 315358251#1 136436466 4942389#0 4942389#1 202092675 315358245.27 315358248#0 315358253#0 315358253#1 315358253#2 315358253#3 402600768#0 402600768#1 51857517#0 51857517#0.33 51857517#1 51857518#1 32978638#0 32978638#1 24972185#0 24972185#2 24972185#2.111 24972185#9 24537982#0 24537982#2 24537982#3 24537982#4 266565302 380273343 -233673425#1 -233673425#0 -266567307#1 -30404124 30417892 266567308#0 64464384#1 32009827 266567303 266567294#0 31342064#1 31342064#1.83 25902677#0 137463474#0 137463474#1 -25796964#0 -32202927#0 -25638527 -25796375#2 -25796375#1 -25796375#0 202070427#1 202070427#2 33280103#0 33280103#1 33280103#2 33280103#3 33280103#4 33280103#4.68 391208990 -391208989 -391029007 -25626614#2 25625943" probability="0.77081235"/>
            <route cost="72734.81" edges="-32923867#0 130996520 130996520.58 172519650 305390333 172515812#0 306086241 61940356 172515808 24495188 61940355 102818925 102818928#1 10425610#0 156923526#0 145069335#0 145069335#2 145069339#0 145069394#0 145069284 32229741 32229742#1 32229742#3 32229742#4 32229742#5 145069311#0 145069316#0 145069316#1 145069313#2 -103512667#2 -103512667#1 -145069287#7 -145069287#7.50 32230348 145069342#0 35926319#1 -108310253 -29458096 -51856495#2 -29458097#2 -32978638#3 -32978638#0 32021112#0 51857516#1 -266565295#5 -266565295#4 -266565295#3 -148050451#2 -148050452#0 -148050455#0 148050457#0 148050453#5 25794520 24890429#2 -203127020#4 -140684000#1 -140684000#0 165520704 -24989986 165520706 140684000#0 140684000#1 203127020#0 200741048 24890450 248012815#1 30399325 30399322#1.56 25367735#1 -25344437#5 30399316#2 -273123309#0 -153220338#1 -23009600#2 -23009600#1 31342350#0 31342350#1 31342350#2 31342350#2.130 391208990 -391208989 -391029007 -25626614#2 25625943" probability="0.14683434"/>
            <route cost="240150.16" edges="-32923867#0 130996520 130996520.58 172519650 306396705 174321447 58295043 32923863#2 266607804#0 266607804#1 266607804#2 4819338#0 4819338#1 4819338#2 4819338#4 163586462 28269810#0 28269810#2 28269810#3 28269810#4 30482619 -205182378#7 -20588624#2 -20588624#1 20405617#0 -589179136 -201926265#3 -201926265#2 -201926265#1 -20975939#0 72883541#3 389840423#1 201926269#1 201926269#2 201926269#3 201926268#0 266887589#0 589179144 266887590#0 266887590#1 4268816#0 4268816#1 201956818#1 201956818#2 201956818#5 164051398 203971379#0 203971379#1 -54154922#1 -54154922#0 -42745461#1 -42745461#0 -42745460 -28132014#2 -28132014#0 24978651 115082348#0 115082348#1 115082348#3 115082348#4 257907858#0 27202149 202070427#0 25796375#0 25796375#1 25796375#2 25796388 32202763 -25638529 -25797433#0 26176222#0 26176222#1 33280103#4 33280103#4.68 391208990 -391208989 -391029007 -25626614#2 25625943" probability="0.06495621"/>
            <route cost="60504.13" edges="-32923867#0 130996520 130996520.58 172519650 305390333 172515812#0 172517196 -38508400#1 gneE20 33779209#1 -103718173 -27893434#1 -27893434#0 -23184317 168245119#0 -20975950#0 -37282688#1 29458100#0 201278216#0 29458647#0 37282369 354967544#0 354967544#1 354967544#2 4268816#0 4268816#1 201956818#1 201956818#2 201956818#5 164051398 25188982#0 25192758 203971378#0 37480109 90587320 90587320.64 201926266 25380714#0 25597196#4 25597196#5 25597196#6 -153692837#3 gneE134 -481432711 -41139095 -25596851#6 -25596851#5 -25596851#4 -25596851#3 -25596851#2 -25596851#1 -25596851#0 201880159#1 201880159#2 201789796#0.31 201789796#1 201789795 -26180725#2 28132852 266507557#0 266507557#1 172368742 172368742.57 172368742.75 172368742.185 542650762 391208991 25626614#0 25626614#1 25625943" probability="0.01584721"/>
            <route cost="82354.00" edges="-32923867#0 130996520 130996520.58 172519650 356952270 54033673#0 54033673#0.28 54033673#2 54033673#3 29458645 29458645.65 29458645.81 201278214#0 201278216#0 29458647#0 37282369 354967544#0 354967544#1 354967544#2 4268816#0 4268816#1 201956818#1 201956818#2 201956818#5 164051398 203971379#0 203971379#1 -54154922#1 -54154922#0 -24977473#2 164051410#0 164051410#1 32199969#0 32199969#2 32199969#5 32199989#0 32199989#1 323248156#0 25797090#1 201444272#0 201444272#1 201444272#3 29027727#0 29027727#4 29027727#6 29027727#7 29027727#9 -29238188#3 -25895966#7 -32202510#1 -61326427#1 -61326427#0 -144657087#0 31342350#1 31342350#2 31342350#2.130 97304242#0 97304242#2 97304242#4 97304242#5 97304242#6 97304242#7 97304242#8 97304242#9 97304242#10 97304242#12 25638761#0 25638761#1 25623139 32203959#0 32203959#2 32203959#3 32203959#4 32203959#5 -25638614 45378204#0 45378204#1 -39861704#2 -39861704#1 -25794504#1 -25623125#2 25623126#0 25623126#2 -391029010 391208991 25626614#0 25626614#1 25625943" probability="0.00154989"/>
        </routeDistribution>
    </vehicle>
    <vehicle arrivalPos="0.00" arrivalSpeed="0.00" depart="60964.00" departPos="153.01" id="h8354c1:1" type="default_018">
        <routeDistribution last="0">
            <route cost="14308.98" edges="-24634510#5 -24634510#0 -24634505 -24608845 -160314351#1 -160314351#0 -24634509#7 24634507 24634508 -24693977#1 -24693977#0 -32999434#1 -24634414#5 -24634414#4 -24634414#3 24634416 315358253#1 315358253#2 315358253#3 402600768#0 402600768#1 51857517#0 51857517#0.33 51857517#1 51857516#1 -266565295#5 -266565295#4 -266565295#3 -266565295#2 148050448#0 148050456 -148050453#1 -266565295#0 -266565299 -24977590#1 -24977590#0 -233673425#1 -233673425#0 -266567307#1 -30404124 30417892 266567308#0 64464384#1 32009827 266567303 24971737#0 24971737#3 -32199989#1 -32199989#0 -32199969#5 -32199969#4 -32199969#1 -164051410#1 -164051410#0 24977473#0 54154922#0 54154922#1 26071515#0 26071515#1 4324820 164051399 201956817 33279254#1 556434727 542630099 354967545#0.45 354967545#1 -266887590#1 -266887590#0 -589179144 -266887589#2 -201926268#1 -266887588#1 -266887588#0 -266887593#6 -266887593#3 -266887591 -141058757 111525330#0 350320331#0 266885723#0 161680739 27453586#0 39970992#0" probability="0.59925896"/>
            <route cost="38884.23" edges="-24634510#5 -24634510#0 -24634505 160314346#0 160314346#1 -315392062#4 -24693977#1 -24693977#0 -32999434#1 32999110#0 32999110#1 402600768#0 402600768#1 51857517#0 51857517#0.33 51857517#1 51857516#1 -266565295#5 -266565295#4 -266565295#3 -266565295#2 -266565295#1 -266565295#0 -266565299 -24977590#1 -24977590#0 -233673425#1 -233673425#0 -266567307#1 -30404124 30417892 266567308#0 64464384#1 32009827 266567303 24971737#0 24971737#3 -32199989#1 -32199989#0 -32199969#5 -32199969#4 23009002#0 24978651 115082348#0 115082348#1 115082348#3 115082348#4 257907858#0 31021475 202070430 202070429#0 202070429#1 202070429#2 202070429#3 202070429#4 202070429#5 202070429#6 202070429#7 201789794#0 201789794#3 308849647 266507550 30320943 23622426 -195073412#2 -195073412#1 -195073412#0 195073415 266507536 27550700 27454737 266507535 32930761 146973160 266885714 146973156#0 450076615#0 161680739 27453586#0 39970992#0" probability="0.20724409"/>
            <route cost="86372.53" edges="-24634510#5 -24634510#0 -24634505 160314346#0 160314346#1 -315392062#4 -24693977#1 -24693977#0 -32999434#1 32999110#0 32999110#1 -315358253#3 -315358253#2 -315358253#1 -315358253#0 -315358248#1 -315358245 -202092675.36 -4942389#1 -4942389#0 386687235 42745545#0 42745545#2 42745545#3 42745545#4 42745545#5 42745545#5.128 42745545#6 28639688#0 28639688#1 28639688#3 116687469#0 248012815#0 248012815#1 30399325 30399322#1.56 30399322#2 30399322#3.66 542635729 31342347 32203023#0 32203023#2 32203023#2.134 31342350#0 144657087#0 144657087#1 -26176223#1 -26176223#0 -25895864#1 25901706 144657087#5 144657087#6 33280102#2 33280102#3 33280102#5 31021475 202070430 202070429#0 202070429#1 202070429#2 202070429#3 202070429#4 202070429#5 202070429#6 202070429#7 201789794#0 201789794#3 308849647 266507550 30320943 23622426 -195073412#2 -195073412#1 -195073412#0 195073415 266507536 27550700 27454737 266507535 32930761 146973160 266885714 146973156#0 450076615#0 161680739 27453586#0 39970992#0" probability="0.15766594"/>
            <route cost="380147.75" edges="-24634510#5 -24634510#0 -24634505 160314346#0 160314346#1 160314345#0 160314345#1 24634413#1 24634413#2 37386279 24634414#5 24634414#5.51 32999110#0 32999110#1 -315358253#3 -315358253#2 -315358253#1 -315358253#0 -315358248#1 160314345#5 160314345#6 -24608842#2 -24608842#0 25955175#1 -148050452#1 148050451#0 266565295#3 266565295#4 266565295#5 32999435 32124637#0 32124637#1 51857518#1 32978638#0 32978638#1 29458097#0 51856495#0 29458096 108239938 104236369 108310250 29119898 145069331#0 145069287#0 145069287#0.136 103512667#1 103512667#2 32234776#0 32226141#0 358042226 52513194 300750369#0 145069325#0 145069384 37649448#0 37649448#1 145069394#0 145069394#1 145069391 145069373#0 145069294#0 32201042 32201044#0 32201044#1 32201044#2 233673423 28418763 -379723624#1 -379723624#0 -32923867#4 -32923867#3 -32923867#2 -32923867#1 -32923867#0 130996520 130996520.58 172519650 356952270 54033673#0 54033673#0.28 54033673#2 54033673#3 29458645 29458645.65 29458645.81 37282738 103718186 37282688#2 37282688#4 37282688#5 23184252#0 23184252#1 389840423#0 389840423#1 20266191 -20266190#1 -266887593#3 -266887591 -141058757 111525330#0 350320331#0 266885723#0 161680739 27453586#0 39970992#0" probability="0.02790562"/>
            <route cost="53253.18" edges="-24634510#5 24634511 -24634511 24634510#1 24634510#6 204588664#0 23436553#3 -22690205#3 -22690205#2 -22690205#1 -233675413#3 -233675413#2 22716069#0 25145014#0 25145014#1 25145014#2 -25209894#1 -25209894#0 -28111977#7 -28111977#6 -26642362#0 -25136986 -18813598#6 -18813598#1 25122731#0 30482614 30482615#1 -25149251#5 -25149251#4 -25149251#3 -25149251#2 -25149251#1 -25149251#0 173169611#4 25171366#0 25171366#1 25171366#2 25076787#1 -23442105#0 -151167738#2 -151167738#1 -151167738#0 -201969576#5 -201969576#4 -201969576#1 -201969576#0 -61940355 -24495188 -29458641 -61940356 29458640#0 172517196 -38508400#1 gneE20 33779209#1 151167768#1 200946853 54033673#0 54033673#0.28 54033673#2 54033673#3 29458645 29458645.65 29458645.81 201278214#0 201278216#0 29458647#0 37282369 354967544#0 354967544#1 354967544#2 -266887590#1 -266887590#0 -589179144 -266887589#2 -201926268#1 -266887588#1 -266887588#0 -266887593#6 -266887593#3 -266887591 -141058757 111525330#0 350320331#0 266885723#0 161680739 27453586#0 39970992#0" probability="0.00792540"/>
        </routeDistribution>
    </vehicle>
    <vehicle arrivalPos="43.23" arrivalSpeed="0.00" depart="60969.00" departPos="37.38" id="h9614c1:1" type="default_018">
        <routeDistribution last="1">
            <route cost="1116.57" edges="25640093#6 25640093#7 115082348#3 115082348#4 257907858#0 27202149 202070427#0 25796375#0 25796375#1 25796375#2 25638527 32202927#0 32202927#1 25797315#1 25797315#2 274823622#9 29238188#0 29238188#1 29238188#3 152077572#0 152077572#2 152077572#2.79 54858974 4942408 54858973#0 54858973#0.62 54858973#1 54858973#2 29119849#0 29119849#1 -248012814 -200741048 -203127020#4 -140684000#1 -140684000#0 380273341 140684001 -233673425#1 -233673425#0 -266567307#1 -30404124 30417892 64464397#0 64464432#2 -24991571 -24991573 -11014139#1 145069303#0 145069303#1 145069303#2 gneE230" probability="0.72277755"/>
            <route cost="14553.98" edges="25640093#6 25640093#7 -115082348#2 -115082348#0 -24978651 28132014#0 28132014#1 42745460 42745461#0 42745461#1 -24977473#2 -24970784#3 -161678034#2 -161678034#2.33 -161678034#2.50 -161678034#1 -161678034#0 28119593 -24983010#2 -24983010#0 26973015 -145069303#4 gneE230" probability="0.25356399"/>
            <route cost="27124.27" edges="25640093#6 25640093#7 115082348#3 115082348#4 257907858#0 27202149 202070427#0 25796375#0 25796375#1 25796375#2 25638527 32202927#0 32202927#1 32202927#2 137463478#2 29238187#0 25797084#0 25797084#1 25797084#2 24846867#3 -137463478#0 25796398#0 305390325#0 305390325#3 266567304#0 266567301#1 64464420 25955089 64464430 64464399#0 64464399#1 64464432#0 64464432#1 64464432#2 -24991571 -24991573 -11014139#1 145069303#0 145069303#1 145069303#2 gneE230" probability="0.02336852"/>
            <route cost="43147.14" edges="25640093#6 25640093#7 115082348#3 115082348#4 257907858#0 257907860#0 257907860#1.168 305390325#0 305390325#3 266567304#0 266567301#1 64464420 25955089 64464430 64464399#0 64464399#1 64464432#0 64464432#1 64464432#2 -24991571 -24991573 -11014139#1 145069303#0 145069303#1 145069303#2 gneE230" probability="0.00023911"/>
            <route cost="6744.35" edges="25640093#6 25640097#0 25640097#1 110435734 -24978651 28132014#0 28132014#1 42745460 42745461#0 42745461#1 54154922#0 54154922#1 26071515#0 4324828#0 -4324827#1 -164051429#1 -164051429#0 -161678034#2 -161678034#2.33 -161678034#2.50 -161678034#1 -161678034#0 28119593 -24983010#2 -24983010#0 26973015 -145069303#4 gneE230" probability="0.00005083"/>
        </routeDistribution>
    </vehicle>
    <vehicle arrivalPos="0.00" arrivalSpeed="0.00" depart="60970.00" departPos="21.74" id="h37c1:1" type="default_018">
        <routeDistribution last="3">
            <route cost="119979.18" edges="-130996521#2 -130996521#1 130996518#0 -233673423 145069386#0 32124563#0 342077199 -145069366#2 32350852#0 32350852#3 32350852#4 51857519#0 161678034#0 161678034#1 161678034#2 161678034#2.30 161678034#2.46 24970784#0 164051410#0 24989879 25597196#0 25597196#2 25597196#3 25597196#4 25597196#5 25597196#6 -153692837#3 -153692837#2 -25596855#0 25596974#1 -25640093#2 25597372 202070429#6 202070429#7 201789794#0 201789794#3 308849647 266507550 30320943 378466167 266507548 32976755 327975020 327975024 327975024.20 327975024.51 327975019 28132017 32976751 32976751.35 306793670#0 306793670#1" probability="0.31615781"/>
            <route cost="121038.32" edges="-130996521#2 -130996521#1 130996518#0 -233673423 145069386#0 32124563#0 342077199 -145069366#2 32350852#0 32350852#3 32350852#4 51857519#0 161678034#0 161678034#1 161678034#2 161678034#2.30 161678034#2.46 164051429#0 164051429#1 10425611#0 10425611#0.83 10425611#1 203971380 37480109 90587320 90587320.64 201926266 30482638#0 30482638#3 30482638#4 30482638#9 30482638#10 30482638#11 30482638#12 201789799#0 201789799#1 201789799#2 201789798#0 201789798#1 202070435#0 10941820 201880159#0 201880159#1 201880159#2 201789796#0.31 201789796#1 30320943 378466167 266507548 32976755 327975020 327975024 327975024.20 327975024.51 327975019 28132017 32976751 32976751.35 306793670#0 306793670#1" probability="0.27050462"/>
            <route cost="102618.43" edges="-130996521#2 -130996521#1 130996518#0 -233673423 -32201044#2 -32201044#1 145069336#0 145069336#1 145069336#2 145069280#0 -145069391 145069286#0 32229741 32229742#1 32229742#3 32229742#4 32229742#5 145069311#0 145069316#0 145069316#1 145069313#2 -103512667#2 -103512667#1 -145069287#7 -145069287#7.50 145069328 145069363#0 145069272 145069362#0 107677354#1 77670297#0 77670297#1 32020916#0 77912233 32200416 29027840 77912237 32200414#0 29027839#0 29027839#2 31343367#0 24537982#0 24537982#2 24537982#3 24537982#4 266565302 380273343 -233673425#1 -233673425#0 -266567307#1 -30404124 30417892 266567308#0 64464384#1 32009827 266567303 266567294#0 31342064#1 31342064#1.83 305495773#0 266507551 266507552#0 31021475 202070430 202070429#0 202070429#1 202070429#2 202070429#3 175761129#3 153692837#1 153692837#2 153692837#3 25597196#7 25597196#10 -25573246#1 -25573246#0 30482638#12 201789799#0 201789799#1 201789799#2 201789798#0 201789798#1 202070435#0 202070435#1 202070435#2 202070435#5 202070435#5.37 202070435#5.70 202070435#9 202070435#12 202070435#13 40059576#0 -157305700#5 -157305700#3 -157305700#2 -157305700#1 -157305700#0 -306793671 -39577538 39577537 306793670#1" probability="0.21309981"/>
            <route cost="168148.41" edges="-130996521#2 -130996521#1 130996518#0 -233673423 145069386#0 32124563#0 342077199 -145069366#2 32350852#0 32350852#3 32350852#4 51857519#0 161678034#0 161678034#1 161678034#2 161678034#2.30 161678034#2.46 164051429#0 164051429#1 10425611#0 10425611#0.83 10425611#1 203971380 37480109 90587320 90587320.64 201926266 30482638#0 30482638#3 30482638#4 30482638#9 30482638#10 30482638#11 30482638#12 201789799#0 201789799#1 201789799#2 201789798#0 201789798#1 202070435#0 10941820 201880159#0 201880159#1 201880159#2 201789796#0.31 201789796#1 201789795 -26180725#2 28132852 266507557#0 266507557#1 4058127#1 25623125#0 25623125#2 -39698490 -39698489 -37681592#6 -37681592#5 -37681592#4 -37681592#3 -37681592#2 -37681592#1 -441565711 -47067277 138300617#5 -39577540 -39577538 39577537 306793670#1" probability="0.10362114"/>
            <route cost="157358.19" edges="-130996521#2 -130996521#1 130996518#0 -233673423 145069386#0 32124563#0 342077199 -145069366#2 32350852#0 32350852#3 32350852#4 51857519#0 161678034#0 161678034#1 161678034#2 161678034#2.30 161678034#2.46 164051429#0 164051429#1 10425611#0 10425611#0.83 10425611#1 203971380 -203971378#1 -25192758 90587321#0 203971379#1 -54154922#1 -54154922#0 54154921#0 54154921#3 201926266 30482638#0 30482638#3 25640150 -92026769#12 -92026769#11 -92026769#5 -92026769#3 -92026769#2 -92026769#1 -92026769#0 -25895947#1 -25895947#0 202070435#2 202070435#5 202070435#5.37 202070435#5.70 202070435#9 202070435#12 202070435#13 40059576#0 -157305700#5 -157305700#3 -157305700#2 -157305700#1 -157305700#0 -306793671 -39577538 39577537 306793670#1" probability="0.09661662"/>
        </routeDistribution>
    </vehicle>
    <vehicle arrivalPos="200.00" arrivalSpeed="0.00" depart="60972.00" departPos="54.30" id="h3188c1:1" type="default_018">
        <routeDistribution last="0">
            <route cost="726.72" edges="24634509#1 -24634506#2 -31395281 31395281 24634506#2 -24634509#7 -24634509#0 -22716549#6 201089423#2 32124744 32124743 285716192#0 285716192#0.83 201963535 -104010328 -25145013#0 -653473569#4 -653473569#2 -653473569#1 -653473569#0 -653473568#1 -653473568#0 -18813598#8 -18813598#7 -18813598#6 -18813598#1 18809673#0 23621955#0 23621955#2 23621955#3 23621955#6 23621955#8 23621955#10 42487766#0 201201940#0 27998675#1 27998676#0 148529632#0 148529632#1 148529632#2 148529632#3 148529632#4 29353676#0 29353676#1 29353676#2 -24754837#0 -393420116#5 -393420116#4 -393420116#2 -266561174#1 -391606911#4 -391606911#3 -391606911#2 -391606911#1 -391606911#0 -325180705#3" probability="0.86163084"/>
            <route cost="16808.42" edges="24634509#1 -24634506#2 -31395281 31395281 24634506#2 -24634509#7 24634507 24634508 315392062#0 201238718#0 201238718#1 201238718#2 174800513 201201953#0 201201953#2 201201953#4 201201953#10 201201953#12 176550246 201238729#1 201238729#2 201238729#3 201238729#5 201238729#6 138002148 128361091 379795371 378946906 449057059 449057052 109483352#0 109483352#1 -201238725#5 -201238725#3 -201238725#2 -201238725#1 -24754876#13 -24754876#11 -24754876#10 -24754876#7 -24754876#6 -24754876#4 -24754876#3 -24754876#2 -24754876#0 -41139660#1 -390068133#1 -390068133#0 -393420112#0 -23622520#2 -23622520#1 -37256211 173658909 -391606911#3 -391606911#2 -391606911#1 -391606911#0 -325180705#3" probability="0.13436904"/>
            <route cost="22857.57" edges="24634509#1 -24634506#2 -24634506#1 -24634506#0 160314346#1 201238718#0 201238718#1 201238718#2 174800513 201201945#0 201201945#1 201201945#2 201201945#3 201201945#7 201201945#8 201089420#0 315358257#0 315358257#0.43 -315358254#1 -164078536 -320733909#2 -320733909#0 -320733910#1 -23622271#6 -23622271#5 -23622271#1 203127018 137672872 137672874#0 320733913 77414800#0 gneE4 148351766 220013328 139429268 320733893 125002615#0 125002615#1 125002604#0 320733905#0 -148527691#9 -148527691#7 -148527691#6 -148527691#5 -148527691#4 -148527691#3 -148527691#1 -307562643#1 37255726#0 37255726#1 -37255717#4 -37255717#3 -37255717#1 -391606911#0 -325180705#3" probability="0.00369689"/>
            <route cost="32317.36" edges="24634509#1 160314351#0 160314351#1 24608845 24634505 201238724 201238718#1 201238718#2 174800513 201201953#0 201201953#2 201201953#4 201201953#10 201201953#12 176550246 201238729#1 201238729#2 201238729#3 201238729#5 201238729#6 138002148 128361091 10427555#0 392714143#0 392714143#1 35744155#0 35744155#2 35744155#3 35744155#5 201201939#0 201201939#2 201201939#3 -32062034#4 -32062034#3 188740075#1 188740075#3 40879982#1 -266561177#1 -266561177#0 -27830333#1 -27830333#0 -266561174#1 -391606911#4 -391606911#3 -391606911#2 -391606911#1 -391606911#0 -325180705#3" probability="0.00026190"/>
            <route cost="10194.40" edges="24634509#1 160314351#0 160314351#1 24608845 24634505 24634510#0 24634510#1 24634510#6 24634510#7 24634510#9 24634510#16 201238726#0 201238726#0.117 201238726#1 201238729#1 201238729#2 201238729#3 201238729#5 201238729#6 138002148 128361091 379795371 378946906 128361098 -35926528#2 -35926528#1 -130185488#3 -130185488#2 -130185488#0 -136728344#5 -136728344#4 -136728344#3 -136728344#2 -136728344#0 -266561177#1 -266561177#0 -27830333#1 -27830333#0 -266561174#1 -391606911#4 -391606911#3 -391606911#2 -391606911#1 -391606911#0 -325180705#3" probability="0.00004133"/>
        </routeDistribution>
    </vehicle>
    <vehicle arrivalPos="46.92" arrivalSpeed="0.00" depart="60976.00" departPos="16.80" id="randUni34021:1" type="random_018">
        <routeDistribution last="0">
            <route cost="4105.07" edges="145069272 145069362#0 107677354#1 77670297#0 77670297#1 32020916#0 77912233 32200416 29027840 77912237 32200414#0 29027839#0 29027839#2 31343367#0 24537982#0 24537982#2 24537982#3 24537982#4 266565302 380273343 -233673425#1 -233673425#0 -266567307#1 -30404124 30417892 266567308#0 64464384#1 32009827 266567303 24971737#0 24971737#3 -32199989#1 -32199989#0 -32199969#5 -32199969#4 -32199969#1 -164051410#1 -164051410#0 24977473#0 54154922#0 54154922#1 26071515#0 26071515#1 4324820 164051399 201956817 33279254#1 556434727 542630099 354967545#0.45 354967545#1 -266887590#1 -266887590#0 -589179144 -266887589#2 -201926268#1 -266887588#1 -266887588#0 -266887593#6 20266190#0 20266190#2 -72883541#0 30054829#0 201926265#5 201278209#0 201278209#2 -20405619 -57827563#0 20266195#0 20266195#2 20266195#4 -439871826 -22486112#6 -22486112#5 -22486112#4 -22486112#3 -22486112#2 -30054884#1 -30054884#0 -141058755#1 -22486120#1 -22486120#0 -22486118#2 22486126#0 -23202117#1" probability="0.96436898"/>