<routes >
    <vType color="red" id="default_014" vClass="passenger"/>
    <vType color="blue" id="random_014" vClass="passenger"/>
    <vehicle arrivalPos="235.68" arrivalSpeed="0.00" depart="51871.00" departPos="14.16" id="h17827c1:3" type="default_014">
        <routeDistribution last="4">
            <route cost="5045.02" edges="32200415#0 32200414#0 29027839#0 29027839#2 31343367#0 29048562#0 145069303#0 145069303#1 145069303#2 145069303#4 -26973015 24983010#0 24983010#1 161678033#0 51857519#0 161678034#0 161678034#1 161678034#2 161678034#2.30 161678034#2.46 164051429#0 164051429#1 10425611#0 10425611#0.83 10425611#1 203971380 37480109 90587320 90587320.64 201926266 30482638#0 30482638#3 30482638#4 30482638#9 30482638#10 30482638#11 30482638#12 201789799#0 201789799#1 201789799#2 201789798#0 201789798#1 202070435#0 202070435#1 202070435#2 202070435#5 202070435#5.37 202070435#5.70 202070435#9 202070435#12 202070435#13 40059576#0 40059576#1 54154971 146973236#0 146973236#1 -37193864 -37193852#0 -35073468#0" probability="0.19583516"/>
            <route cost="2805.05" edges="32200415#0 32200414#0 29027839#0 29027839#2 31343367#0 29048562#0 11014139#0 24991573 24991571 64464405 266567306 64464408 64464384#1 32009827 266567303 266567294#0 25797090#1 201444272#0 201444272#1 24846867#0 25665370#0 -29238187#1 -29238187#0 -25797433#3 -25797433#2 -25797433#1 -25797433#0 -144657087#3 -144657087#2 -144657087#1 -144657087#0 31342350#1 31342350#2 31342350#2.130 391208990 391029009#0 391029009#0.69 391029009#1 391029009#1.157 41425835 41425835.214 41425835.236 151167747 151167747.23 39704923 266507553 48395120#0 48395120#1 32976755 327975020 327975024 327975024.20 327975024.51 327975019 28132017 32976751 32976751.35 146973222 39577538 306793671 157305700#0 157305700#1 157305700#2 157305700#3 157305700#4 40059576#1 54154971 146973236#0 146973236#1 -37193864 -37193852#0 -35073468#0" probability="0.19117380"/>
            <route cost="847.02" edges="32200415#0 32200414#0 29027839#0 29027839#2 31343367#0 24537982#0 24537982#2 24537982#3 24537982#4 266565302 380273343 -233673425#1 -233673425#0 -266567307#1 -30404124 30417892 266567308#0 64464384#1 32009827 266567303 266567294#0 31342064#1 31342064#1.83 305495773#0 266507551 266507552#0 31021475 202070430 202070429#0 202070429#1 202070429#2 202070429#3 202070429#4 202070429#5 202070429#6 202070429#7 -149045269#4 -149045269#2 -149045269#1 gneE136 -201789797#1 -201789797#0 201789799#0 201789799#1 201789799#2 201789798#0 201789798#1 202070435#0 202070435#1 202070435#2 202070435#5 202070435#5.37 202070435#5.70 35743273 35743389#1 -52918687#5 -52918687#3 -52918687#2 -52918687#1 -52918687#0 -171007007#1 54154971 146973236#0 146973236#1 -37193864 -37193852#0 -35073468#0" probability="0.32893989"/>
            <route cost="2124.84" edges="32200415#0 32200414#0 29027839#0 29027839#2 31343367#0 24537982#0 24537982#2 24537982#3 24537982#4 266565302 380273343 -233673425#1 -233673425#0 -266567307#1 -30404124 30417892 266567308#0 64464384#1 32009827 266567303 266567294#0 31342064#1 31342064#1.83 305495773#0 266507551 266507552#0 31021475 202070430 202070429#0 202070429#1 202070429#2 202070429#3 202070429#4 153692837#0 153692837#1 153692837#2 153692837#3 153692837#4 153692837#5 30482638#9 30482638#10 25640157#0 25640157#1 25640157#2 -92026769#5 -92026769#3 -92026769#2 -92026769#1 -92026769#0 -25895947#1 -25895947#0 202070435#2 202070435#5 202070435#5.37 202070435#5.70 35743273 35743389#1 -52918687#5 -52918687#3 -52918687#2 -52918687#1 -52918687#0 -171007007#1 54154971 146973236#0 146973236#1 -37193864 -37193852#0 -35073468#0" probability="0.00073421"/>
            <route cost="875.62" edges="32200415#0 32200414#0 -51856492#2 -29238184#1 -145069300#1 -145069300#1.112 -29458097#2 -32978638#3 -32978638#0 32021112#0 51857516#1 -266565295#5 -266565295#4 -266565295#3 -266565295#2 -266565295#1 -266565295#0 -266565299 -24977590#1 -24977590#0 -233673425#1 -233673425#0 -266567307#1 -30404124 30417892 266567308#0 64464384#1 32009827 266567303 266567294#0 31342064#1 31342064#1.83 305495773#0 266507551 266507552#0 31021475 202070430 202070429#0 202070429#1 202070429#2 202070429#3 202070429#4 202070429#5 202070429#6 202070429#7 -149045269#4 -149045269#2 -149045269#1 gneE136 -201789797#1 -201789797#0 201789799#0 201789799#1 201789799#2 201789798#0 201789798#1 202070435#0 202070435#1 202070435#2 202070435#5 202070435#5.37 202070435#5.70 202070435#9 202070435#12 202070435#13 40059576#0 40059576#1 54154971 146973236#0 146973236#1 -37193864 -37193852#0 -35073468#0" probability="0.28331693"/>
        </routeDistribution>
    </vehicle>
    <vehicle arrivalPos="200.00" arrivalSpeed="0.00" depart="51872.00" departPos="19.94" id="h1234c2:1" type="default_014">
        <routeDistribution last="1">
            <route cost="808.49" edges="201956811#0 36689751#0 -18909063#2 -18909063#0 389831363#0 -25122830#2 29002239 35926319#0 35926319#1 -108310253 -29458096 -51856495#2 -29458097#2 -32978638#3 -32978638#0 32021112#0 168702040#1 168702040#2 168702040#3 168702040#4 168702039#0 168702039#1 32999434#0 201089423#0 201089423#2 32124744 32124743 285716192#0 285716192#0.83 104010439#1 202070434#0 202070434#2 -139230366 -233675413#8 -233675413#6 -233675413#3 -233675413#2 -233675413#1 -233675413#0 -136728347#4 -201963533#5 -201963533#4 -201963533#1 -201963533#1.120 -201963533#1.145 -201963533#0 -285549250#1 -128361102#1 128361107#0 128361107#1 449057056 378946908 128361091 379795371 378946906 449057059 449057052 109483352#0 109483352#1 -201238725#5 -201238725#3 27998676#0 148529632#0 148529632#1 148529632#2 -23623693 -23623692#1 -23623705 -23623701#0 -24754837#2 24754854#0 24754854#2 24754854#3 -390068133#0 -393420112#0 -23622520#2 -23622520#1 -37256211 173658909 -391606911#3 -391606911#2 -391606911#1 -391606911#0 -325180705#3" probability="0.33668599"/>
            <route cost="570.33" edges="201956811#0 36689751#0 33102476 173148224#1 -137685135 -51856496#7 gneE184 gneE185 51856496#6 51856496#8 204388144#0 204388144#1 -33102476 -36689751#2 10425609#0 10425609#1 201963537#1 -164051413 -653473569#5 -653473569#4 -653473569#2 -22716069#2 -22716069#1 -22716069#0 -233675413#1 -233675413#0 -136728347#4 -201963533#5 -201963533#4 -201963533#1 -201963533#1.120 -201963533#1.145 -201963533#0 -285549250#1 -128361102#1 128361107#0 128361107#1 449057056 378946908 128361091 379795371 378946906 128361098 -35926528#2 -35926528#1 -130185488#3 -130185488#2 -130185488#0 -136728344#5 -136728344#4 -136728344#3 -136728344#2 -136728344#0 -266561177#1 -266561177#0 -27830333#1 -27830333#0 -266561174#1 -391606911#4 -391606911#3 -391606911#2 -391606911#1 -391606911#0 -325180705#3" probability="0.31714498"/>
            <route cost="2310.88" edges="201956811#0 36689751#0 33102476 18909064 gneE3 145069291#0 145069309 32084380 103396186 -103512667#1 -103512667#0 103512671 -33102477 -33102476 -36689751#2 10425609#0 10425609#1 201963537#1 -164051413 -653473569#5 -653473569#4 -653473569#2 -653473569#1 -653473569#0 -653473568#1 -653473568#0 -18813598#8 -18813598#7 -18813598#6 -18813598#1 18809673#0 18809673#7 18809673#9 18809673#12 18809673#13 392631301 23622107#0 23622107#3 23622107#4 23622107#7 23622107#8 25341141#0 25341141#1 164051424 201202386#0 201201948 164051420#0 164051420#1 24754881#0 24754881#2 24754881#5 -24754837#7 -24754837#4 -24754837#3 23623701#0 23623701#1 23623701#2 29353676#2 -24754837#0 -393420116#5 -393420116#4 -393420116#2 -266561174#1 -391606911#4 -391606911#3 -391606911#2 -391606911#1 -391606911#0 -325180705#3" probability="0.19672881"/>
            <route cost="2567.28" edges="201956811#0 36689751#0 -18909063#2 -18909063#0 389831363#0 -25122830#2 25122830#0 -32061928#1 18909063#0 18909063#1 -36689751#2 10425609#0 10425609#1 201963537#1 -164051413 -653473569#5 25145013#0 -25145012#6 -25145012#5 -22716069#1 -22716069#0 -233675413#1 -233675413#0 -136728347#4 -201963533#5 -201963533#4 -201963533#1 -201963533#1.120 -201963533#1.145 -201963533#0 -285549250#1 -128361102#1 23623674#0 23623674#11 27998675#1 27998676#0 148529632#0 148529632#1 148529632#2 148529632#3 148529632#4 29353676#0 29353676#1 29353676#2 -24754837#0 -393420116#5 -393420116#4 -393420116#2 -266561174#1 -391606911#4 -391606911#3 -391606911#2 -391606911#1 -391606911#0 -325180705#3" probability="0.07856740"/>
            <route cost="3251.79" edges="201956811#0 36689751#0 -18909063#2 -18909063#0 389831363#0 -25122830#2 145069347#0 103512671 -33102477 -33102476 -36689751#2 10425609#0 10425609#1 201963537#1 -164051413 -653473569#5 -653473569#4 -653473569#2 -653473569#1 -653473569#0 -653473568#1 -653473568#0 -18813598#8 -18813598#7 -18813598#6 -18813598#1 18809673#0 23621955#0 23621955#2 23621955#3 23621955#6 23621955#8 23621955#10 42487766#0 201201940#0 27998675#1 27998676#0 148529632#0 148529632#1 148529632#2 148529632#3 148529632#4 29353676#0 29353676#1 -23623701#2 -23623701#1 -23623701#0 -24754837#2 -24754837#1 -24754837#0 23622520#0 -37256211 173658909 -391606911#3 -391606911#2 -391606911#1 -391606911#0 -325180705#3" probability="0.07087283"/>
        </routeDistribution>
    </vehicle>
    <vehicle arrivalPos="226.92" arrivalSpeed="0.00" depart="51883.00" departPos="33.23" id="h8676c1:5" type="default_014">
        <routeDistribution last="1">
            <route cost="617.05" edges="103512667#0 103512667#1 103512667#2 32234776#0 145069351 145069313#0 145069313#2 -103512667#2 -103512667#1 -103512667#0 103512671 -33102477 18909061#0 389831363#0 32061928#2 32061928#4 24599188#0 24599188#0.75 24599188#0.94 172488482#0 -32124744 -201089423#2 -201089423#1 24693977#0 24693977#1 315392062#0 -160314346#1 -160314346#0 24634505 24634510#0 24634510#1" probability="0.79905708"/>
            <route cost="324.59" edges="103512667#0 -145069287#7 -145069287#7.50 32230348 32230349#0 25122830#0 32061928#2 32061928#4 24599188#0 24599188#0.75 24599188#0.94 172488482#0 -32124744 -201089423#2 22716549#0 24634509#0 24634509#1 160314351#0 160314351#1 24608845 24634505 24634510#0 24634510#1" probability="0.19759857"/>
            <route cost="2415.94" edges="103512667#0 -145069287#7 -145069287#7.50 32230348 145069342#0 35926319#1 -108310253 -29458096 -51856495#2 -29458097#2 -389840420#4 -389840420#2 24599188#0 24599188#0.75 24599188#0.94 172488482#0 -32124744 -201089423#2 22716549#0 24634509#0 24634507 24634508 315392062#0 -160314346#1 -160314346#0 24634505 24634510#0 24634510#1" probability="0.00177816"/>
            <route cost="1171.92" edges="103512667#0 -145069287#7 -145069287#7.50 32230348 32230349#0 25122830#0 32061928#2 32061928#4 24599188#0 24599188#0.75 24599188#0.94 172488482#0 -32124744 -201089423#2 -201089423#1 24693977#0 24693977#1 315392062#0 -160314346#1 -160314346#0 24634505 24634510#0 24634510#1" probability="0.00156614"/>
            <route cost="27427.14" edges="103512667#0 103512667#1 103512667#2 32234776#0 145069351 145069313#0 -145069316#1 -145069316#0 32229973 -32229976 32084380 103396186 -103512667#1 -103512667#0 103512671 -33102477 -33102476 -36689751#2 10425609#0 10425609#1 201963537#1 -164051413 -653473569#5 25145013#0 -25145012#6 -25145012#5 -22716069#1 25145014#0 25145014#1 25187891 -136728347#4 -201963533#5 -201963533#4 -201963533#1 -201963533#1.120 -201963533#1.145 -201963533#0 10427692#0 10427692#2 10427692#3 10427692#4 10427692#5 10427692#6 10427692#7 10427692#7.50 10427692#8 -24634510#18 -24634510#15 -24634510#8 -24634510#6 -24634510#5 24634511 -24634511 24634510#1" probability="0.00000005"/>
        </routeDistribution>
    </vehicle>
    <vehicle arrivalPos="0.00" arrivalSpeed="0.00" depart="51883.00" departPos="4.75" id="h9043c1:3" type="default_014">
        <routeDistribution last="3">
            <route cost="101921.70" edges="-25640093#6 -25640098#0 60066780 -25640097#1 -25640097#0 25640093#7 115082348#3 115082348#4 257907858#0 27202149 202070427#0 202070427#1 202070427#2 33280103#0 33280103#1 33280103#2 33280103#3 33280103#4 33280103#4.68 391208990 391029009#0 391029009#0.69 391029009#1 391029009#1.157 41425835 41425835.214 41425835.236 151167747 151167747.23 549032836 39704924 39704922 266507540 27392720 27392724 266507546 266507536 27550700 27454737 266507535 32930761 146973160 266885714 266885716 266885719 266885719.121 266885713 221257625.670 221257625.683 221257625.1565 221257625.1575" probability="0.21991311"/>
            <route cost="101937.81" edges="-25640093#6 -25640098#0 60066780 -25640097#1 -25640097#0 25640093#7 115082348#3 115082348#4 257907858#0 27202149 202070427#0 25796375#0 25796375#1 25796375#2 25796388 gneE147 -71900674#2 25895864#0 25895864#1 26176223#0 26176223#1 -144657087#1 -144657087#0 31342350#1 31342350#2 31342350#2.130 391208990 391029009#0 391029009#0.69 391029009#1 391029009#1.157 41425835 41425835.214 41425835.236 151167747 151167747.23 549032836 39704924 39704922 266507540 27392720 27392724 266507546 266507536 27550700 27454737 266507535 32930761 146973160 266885714 266885716 266885719 266885719.121 266885713 221257625.670 221257625.683 221257625.1565 221257625.1575" probability="0.20858478"/>
            <route cost="101216.86" edges="-25640093#6 -25640093#5 -25640093#4 -25640093#3 -25596974#1 -25596974#0 -41139095 -25596851#6 -25596851#5 -25596851#4 -25596851#3 -25596851#2 -25596851#1 -25596851#0 201880159#1 201880159#2 201789796#0.31 201789796#1 30320943 23622426 -195073412#2 -195073412#1 -195073412#0 195073415 266507536 27550700 27454737 266507535 32930761 146973160 266885714 266885716 266885719 266885719.121 266885713 221257625.670 221257625.683 221257625.1565 221257625.1575" probability="0.20232107"/>
            <route cost="111373.32" edges="-25640093#6 -25640093#5 -25596861#0 -202070429#1 -25573267#1 -25573267#0 175761126 28132869 261448661 -175761127#13 -175761127#11 -175761127#9 -175761127#7 -175761127#1 -36291830 30320943 378466167 266507548 257907861 151167740 266507555 266507558 39704924 39704922 266507540 27392720 27392724 266507546 266507536 27550700 27454737 266507535 32930761 146973160 266885714 266885716 266885719 266885719.121 266885713 221257625.670 221257625.683 221257625.1565 221257625.1575" probability="0.19699599"/>
            <route cost="108934.32" edges="-25640093#6 -25640093#5 25596861#1 25596861#2 -25596855#1 153692837#2 gneE134 -481432711 -41139095 gneE143 25596993#0 25596993#5 149045845 -149045266 201789796#1 30320943 378466167 266507548 257907861 151167740 266507555 266507558 39704924 39704922 266507540 27392720 27392724 266507546 266507536 27550700 27454737 266507535 32930761 146973160 266885714 266885716 266885719 266885719.121 266885713 221257625.670 221257625.683 221257625.1565 221257625.1575" probability="0.17218505"/>
        </routeDistribution>
    </vehicle>
    <vehicle arrivalPos="0.00" arrivalSpeed="0.00" depart="51888.00" departPos="247.73" id="h2028c1:1" type="default_014">
        <routeDistribution last="2">
            <route cost="268229.26" edges="-136728347#4 -201963533#5 -201963533#4 -201963533#1 -201963533#1.120 -201963533#1.145 -201963533#0 10427692#0 10427692#2 10427692#3 10427692#4 10427692#5 10427692#6 10427692#7 10427692#7.50 10427692#8 201238726#0 201238726#0.117 201238726#1 201238730 176550249#0 176550249#1 176550249#2 176550249#3 176550249#4 201201950#0 201201950#1 201201950#2 201201950#3 201201950#4 386687239#0 386687239#1 202092676#0 386687235 42745545#0 42745545#2 42745545#3 42745545#4 42745545#5 42745545#5.128 42745545#6 28639688#0 28639688#1 28639688#3 116687469#0 248012815#0 248012815#1 30399325 30399322#1.56 30399322#2 30399322#3.66 542635729 542727960 30399316#0 30399316#0.52 30399316#2 -273123309#0 -153220338#1 29205273#0 29205273#1 25616922#0 25616922#1 25616922#6 -27761238#5 27781907#0 27781907#1 -97304242#5 -39863084#5 -39863084#4 -39863084#3 -39863084#2 -39863084#1 -28133179 -25623128#3 -25623128#2 -25623128#1 -25623128#0 -391029013 -25623127#1 -25623127#0 -25623126#2 -25623126#1 25623125#2 -39698490 -39698489 -37681592#6 -37681592#5 -37681592#4 -37681592#3 -37681592#2 -37681592#1 -37681592#0 -138300617#3 138300629 306793669 146973170 -266507543 266507533 266507544 266507534 39697946.985 39697946.1000" probability="0.29455457"/>
            <route cost="104756.95" edges="-136728347#4 -26642362#5 -26642362#3 -26642362#2 -25145014#4 -25145014#3 -25209894#1 25145012#0 25145012#1 25145012#2 25145012#3 25145012#4 22716069#2 653473569#2 653473569#3 653473569#5 164051413 104010475#0 104012170 -32124745 -32124743 -32124744 -201089423#2 -201089423#1 -32999434#1 32999110#0 32999110#1 402600768#0 402600768#1 51857517#0 51857517#0.33 51857517#1 51857516#1 -266565295#5 -266565295#4 -266565295#3 -266565295#2 -266565295#1 -266565295#0 -266565299 -24977590#1 -24977590#0 -233673425#1 -233673425#0 -266567307#1 -30404124 30417892 266567308#0 64464384#1 32009827 266567303 266567294#0 31342064#1 31342064#1.83 305495773#0 266507551 266507552#0 31021475 202070430 202070429#0 202070429#1 202070429#2 202070429#3 202070429#4 202070429#5 202070429#6 202070429#7 201789794#0 201789794#3 308849647 266507550 30320943 378466167 266507548 32976755 327975020 327975024 327975024.20 327975024.51 327975019 28132017 32976751 32976751.35 146973222 39577538 39577540 638602238 -138300617#4 -138300617#3 138300629 306793669 146973170 -266507543 266507533 266507544 266507534 39697946.985 39697946.1000" probability="0.28475234"/>
            <route cost="215417.57" edges="-136728347#4 -201963533#5 -201963533#4 -201963533#1 -201963533#1.120 -201963533#1.145 -201963533#0 10427692#0 10427692#2 10427692#3 10427692#4 10427692#5 10427692#6 10427692#7 10427692#7.50 10427692#8 -24634510#18 -24634510#15 -24634510#8 -24634510#6 -24634510#5 -24634510#0 201238724 -201238718#0 160314345#0 160314345#1 160314345#2 160314345#3 160314345#4 -315358245 -202092675.36 -4942389#1 -4942389#0 386687235 42745545#0 42745545#2 42745545#3 42745545#4 42745545#5 42745545#5.128 42745545#6 28639688#0 28639688#1 28639688#3 116687469#0 248012815#0 248012815#1 30399325 30399322#1.56 30399322#2 30399322#3.66 30399319 -152077572#2 -152077572#1 -29238188#3 -25895966#7 -32202510#1 -61326427#1 -61326427#0 144657087#1 -26176223#1 -26176223#0 26176222#1 33280103#4 33280103#4.68 391208990 391029009#0 391029009#0.69 391029009#1 391029009#1.157 41425835 41425835.214 41425835.236 151167747 151167747.23 39704923 266507553 48395120#0 48395120#1 32976755 327975020 327975024 327975024.20 327975024.51 327975019 146973189 195073416 195073418#0 195073418#1 266507539 27392718 27392719 266507541 266507544 266507534 39697946.985 39697946.1000" probability="0.16037170"/>
            <route cost="173192.84" edges="-136728347#4 -26642362#5 -26642362#3 -26642362#2 -25145014#4 -25145014#3 -25145014#2 -25145014#1 -25145014#0 22716069#1 22716069#2 653473569#2 653473569#3 653473569#5 164051413 104010475#0 104012170 -32124745 -32124743 -32124744 -201089423#2 22716549#0 24634509#0 24634507 24634508 315392062#0 160314345#0 160314345#1 160314345#2 160314345#3 160314345#4 160314345#5 160314345#6 -24608842#2 -24608842#0 25955175#1 -148050452#1 -148050452#0 148050455#1 148050455#2 28639688#0 28639688#1 28639688#3 116687469#0 248012815#0 248012815#1 30399325 30399322#1.56 30399322#2 30399322#3.66 542635729 542727960 30399316#0 30399316#0.52 30399316#2 -273123309#0 -153220338#1 -23009600#2 -23009600#1 31342350#0 31342350#1 31342350#2 31342350#2.130 391208990 391029009#0 391029009#0.69 391029009#1 391029009#1.157 41425835 41425835.214 41425835.236 151167747 151167747.23 549032836 39704924 39704922 266507540 27392720 27392724 23622443 195073412#0 195073412#1 195073412#2 195073413 327975020 327975024 327975024.20 327975024.51 327975019 146973189 195073416 195073418#0 195073418#1 266507539 27392718 27392719 266507541 266507544 266507534 39697946.985 39697946.1000" probability="0.15137646"/>
            <route cost="238430.11" edges="-136728347#4 -201963533#5 -201963533#4 -201963533#1 -201963533#1.120 -201963533#1.145 -201963533#0 10427692#0 10427692#2 10427692#3 10427692#4 10427692#5 10427692#6 10427692#7 10427692#7.50 10427692#8 201238726#0 201238726#0.117 201238726#1 201238730 176550249#0 176550249#1 176550249#2 176550249#3 176550249#4 174800513 201201945#0 201201945#1 -136436468#2 26677213#0 201950259#0 201950259#4 201950263#0 201950263#7 129379967#0 129379921#0 129379921#1 129379920#0 129379920#1 315358246 129379922 315358252#0 447569997#0 447569997#1 10425532#0 25316932#0 138002149#0 138002149#1 138002149#2 137246371#0 137246371#2 137246371#2.17 30399663#0 28639688#0 28639688#1 28639688#3 116687469#0 248012815#0 248012815#1 30399325 30399322#1.56 30399322#2 30399322#3.66 542635729 31342347 32203023#0 32203023#2 32203023#2.134 31342350#0 31342350#1 31342350#2 31342350#2.130 391208990 391029009#0 391029009#0.69 391029009#1 391029009#1.157 41425835 41425835.214 41425835.236 151167747 151167747.23 39704923 266507553 48395120#0 48395120#1 32976755 327975020 327975024 327975024.20 327975024.51 327975019 146973189 195073416 195073418#0 195073418#1 266507539 27392718 27392719 266507541 266507544 266507534 39697946.985 39697946.1000" probability="0.10894492"/>
        </routeDistribution>
    </vehicle>
    <vehicle arrivalPos="2.24" arrivalSpeed="0.00" depart="51895.00" departPos="6.43" id="randUni531:1" type="random_014">
        <routeDistribution last="0">
            <route cost="596.49" edges="-145069303#0 -32009683#1 24537982#0 24537982#2 24537982#3 24537982#4 266565302 380273343 -233673425#1 -233673425#0 -266567307#1 -30404124 30417892 266567308#0 64464384#1 32009827 266567303 266567294#0 31342064#1 31342064#1.83 305495773#0 266507551 266507552#0 31021475 202070430 202070429#0 202070429#1 202070429#2 202070429#3 202070429#4 153692837#0 153692837#1 153692837#2 153692837#3 25597196#7 -25573260#2 -25573260#1 -25573260#0 -30482638#10 -30482638#9" probability="0.44237186"/>
            <route cost="6570.46" edges="-145069303#0 -32009683#1 24537982#0 25993505#0 25993505#3 -25993505#5 -25993505#4 -25993505#3 -25993505#2 -24537982#1 29048562#0 145069303#0 145069303#1 145069303#2 145069303#4 -26973015 24983010#0 24983010#1 161678033#0 51857519#0 161678034#0 161678034#1 161678034#2 161678034#2.30 161678034#2.46 164051429#0 164051429#1 10425611#0 10425611#0.83 10425611#1 203971380 37480109 90587320 90587320.64 201926266 30482638#0 30482638#3 30482638#4 -153692837#5 153692841#4 -25573260#1 -25573260#0 -30482638#10 -30482638#9" probability="0.43342740"/>
            <route cost="1393.50" edges="-145069303#0 11014139#0 24991573 24991571 64464405 266567306 64464408 64464384#1 32009827 266567303 266567294#0 31342064#1 31342064#1.83 305495773#0 266507551 266507552#0 31021475 202070430 202070429#0 202070429#1 202070429#2 202070429#3 175761129#3 153692837#1 153692837#2 153692837#3 25597196#7 -25573260#2 -25573260#1 -25573260#0 -30482638#10 -30482638#9" probability="0.11828721"/>
            <route cost="1442.20" edges="-145069303#0 11014139#0 24991573 24991571 64464405 266567306 64464408 64464384#1 32009827 266567303 266567294#0 31342064#1 31342064#1.83 305495773#0 266507551 266507552#0 31021475 202070430 202070429#0 202070429#1 202070429#2 202070429#3 202070429#4 153692837#0 153692837#1 153692837#2 153692837#3 25597196#7 -25573260#2 -25573260#1 -25573260#0 -30482638#10 -30482638#9" probability="0.00556869"/>
            <route cost="9191.54" edges="-145069303#0 11014139#0 24991573 24991571 64464405 266567306 64464408 64464384#1 32009827 266567303 266567294#0 31342064#1 31342064#1.83 305495773#0 266507551 85564606 -115082348#5 -115082348#3 -25640093#7 -25640093#6 -25640093#5 -25640093#4 153692837#1 153692837#2 153692837#3 153692837#4 153692841#4 -25573260#1 -25573260#0 -30482638#10 -30482638#9" probability="0.00034484"/>
        </routeDistribution>
    </vehicle>
    <vehicle arrivalPos="127.84" arrivalSpeed="0.00" depart="51901.00" departPos="25.13" id="h13206c2:1" type="default_014">
        <routeDistribution last="0">
            <route cost="2100.08" edges="-25640145#2 -25640145#1 25640375#1 25640375#3 92026769#4 92026769#6 92026769#12 -25640150 -30482638#3 -30482638#2 -201926266 -90587320 -37480109 -90587323 -10425611#1 -10425611#0 -10425611#0.35 4324827#0 203971381#0 203971381#1 4324820 26471940#0 -164051438#2 -164051438#1 -164051438#0 -164051438#0.46 -164051438#0.62 -26471933 140834262#0 140834255#0 115881043#0 115881043#1 -115881039" probability="0.57163436"/>
            <route cost="564.22" edges="-25640145#2 -25640145#1 -25640375#0 -25640157#0 -30482638#10 -30482638#9 -30482638#8 -30482638#3 -30482638#2 -201926266 -54154921#3 -54154921#2 54154922#0 54154922#1 26071515#0 26071515#1 4324820 26471940#0 -164051438#2 -164051438#1 -164051438#0 -164051438#0.46 -164051438#0.62 -26471933 140834262#0 140834255#0 115881043#0 115881043#1 -115881039" probability="0.40988240"/>
            <route cost="12082.19" edges="-25640145#2 25640146 -25640375#2 25640145#0 25640145#2 25640145#3 25640145#4 32350901#2 201789797#0 201789797#1 41139095 25596974#0 25596855#0 25596855#1 25596855#2 -25597196#4 -25597196#3 -25597196#2 -25597196#1 42745460 42745461#0 42745461#1 54154922#0 54154922#1 26071515#0 26071515#1 4324820 26471940#0 -164051438#2 -164051438#1 -164051438#0 -164051438#0.46 -164051438#0.62 -26471933 140834262#0 140834255#0 115881043#0 115881043#1 -115881039" probability="0.01750311"/>
            <route cost="13632.88" edges="-25640145#2 -25640145#1 -25640375#0 -25640157#0 -30482638#10 -30482638#9 -153692837#5 -153692841#3 -25595931 -25597196#5 -25597196#4 -25380714#1 -201926266 -54154921#3 -54154921#2 54154922#0 54154922#1 26071515#0 26071515#1 4324820 164051399 201956817 33279254#1 556434727 -201953160#4 -201953160#1 115881043#0 115881043#1 -115881039" probability="0.00050923"/>
            <route cost="14856.65" edges="-25640145#2 25640146 -25640375#2 25640145#0 25640145#2 25640145#3 25640145#4 32350901#2 201789797#0 -25597196#12 -25597196#11 -25597196#9 -153692837#3 -153692837#2 -153692837#1 -153692837#0 -202070429#4 -202070429#3 -202070429#2 -202070429#1 -202070429#0 151167728 257907859#0 257907859#1 -257907858#1 -115082348#5 -115082348#3 -115082348#2 -115082348#0 -24978651 28132014#0 28132014#1 42745460 42745461#0 42745461#1 54154922#0 54154922#1 26071515#0 26071515#1 4324820 26471940#0 -164051438#2 -164051438#1 -164051438#0 -164051438#0.46 -164051438#0.62 -26471933 140834262#0 140834255#0 115881043#0 115881043#1 -115881039" probability="0.00047090"/>
        </routeDistribution>
    </vehicle>
    <vehicle arrivalPos="200.00" arrivalSpeed="0.00" depart="51908.00" departPos="82.87" id="h10111c1:3" type="default_014">
        <routeDistribution last="0">
            <route cost="990.78" edges="-25797315#2 -25797433#1 -25797433#0 -144657087#3 -144657087#2 -144657087#1 61326427#0 -274823622#0 -274823622#0.68 -31342351#1 31342349#0 31342349#3 4942408 54858973#0 54858973#0.62 54858973#1 54858973#2 29119849#0 29119849#1 29119850 29119850.70 30399662#0 30399662#1 54169280#0 54169280#1 54169280#2 54169280#3 54169280#4 54169280#6 386687232#0 386687242 23166741#0 24634414#0 24634414#1 24634414#2 24634414#3 24634414#4 24634414#5 24634414#5.51 32999434#0 201089423#0 201089423#2 32124744 32124743 285716192#0 285716192#0.83 104010439#1 202070434#0 202070434#2 -139230366 -233675413#8 -233675413#6 -233675413#3 -233675413#2 -233675413#1 -233675413#0 -136728347#4 -201963533#5 -201963533#4 -201963533#1 -201963533#1.120 -201963533#1.145 -201963533#0 -285549250#1 -128361102#1 128361107#0 128361107#1 449057056 378946908 128361091 379795371 378946906 128361098 -35926528#2 -35926528#1 -130185488#3 -130185488#2 -130185488#0 -136728344#5 -136728344#4 -136728344#3 -136728344#2 -136728344#0 -266561177#1 -266561177#0 -27830333#1 -27830333#0 -266561174#1 -391606911#4 -391606911#3 -391606911#2 -391606911#1 -391606911#0 -325180705#3" probability="0.34204915"/>
            <route cost="2392.26" edges="-25797315#2 25797433#2 25797433#3 137463478#3 29238188#0 29238188#1 29238188#3 152077572#0 152077572#2 152077572#2.79 54858974 4942408 54858973#0 54858973#0.62 54858973#1 54858973#2 29119849#0 29119849#1 29119850 29119850.70 30399662#0 30399662#1 54169280#0 54169280#1 54169280#2 54169280#3 54169280#4 54169280#6 272042143 23166741#0 24634414#0 24634414#1 -160314345#2 -160314345#1 -160314345#0 -160314346#1 -160314346#0 24634505 24634510#0 24634510#1 24634510#6 24634510#7 24634510#9 24634510#16 201238726#0 201238726#0.117 201238726#1 201238729#1 201238729#2 201238729#3 201238729#5 201238729#6 138002148 128361091 379795371 378946906 128361098 -35926528#2 -35926528#1 -130185488#3 -130185488#2 -130185488#0 -136728344#5 -136728344#4 -136728344#3 -136728344#2 -136728344#0 -266561177#1 -266561177#0 -27830333#1 -27830333#0 -266561174#1 -391606911#4 -391606911#3 -391606911#2 -391606911#1 -391606911#0 -325180705#3" probability="0.31532020"/>
            <route cost="3643.89" edges="-25797315#2 25797433#2 25797433#3 137463478#3 29238188#0 29238188#1 29238188#3 152077572#0 152077572#2 152077572#2.79 54858974 4942408 54858973#0 54858973#0.62 54858973#1 54858973#2 29119849#0 29119849#1 29119850 29119850.70 30399326#0 -137246371#2 -137246371#1 -138002149#2 -138002149#1 -138002149#0 -25316932#4 -10425532#5 -447569998#1 -447569997#0 129379918#0 -40888351#6 -40888351#2 -40888351#0 201950247#0 201950247#1 201950247#2 201950247#3 53396619#5 53396619#6 -26677216#2 -26677216#1 -54169231#2 -54169231#1 -54169231#0 -26677214#3 -26677214#2 201950259#0 201950259#4 -25117391#2 -25117391#1 315358257#0 315358257#0.43 -315358255#4 -286646456#2 224892361#1 224892361#2 224892361#3 224892361#7 -170018165#0 137133006#0 175770996#0 201238729#3 201238729#5 201238729#6 138002148 128361091 379795371 378946906 128361098 -35926528#2 -35926528#1 -130185488#3 -130185488#2 -130185488#0 -136728344#5 -136728344#4 -136728344#3 -136728344#2 -136728344#0 -266561177#1 -266561177#0 -27830333#1 -27830333#0 -266561174#1 -391606911#4 -391606911#3 -391606911#2 -391606911#1 -391606911#0 -325180705#3" probability="0.17698822"/>