<routes >
    <vType color="red" id="default_021" vClass="passenger"/>
    <vType color="blue" id="random_021" vClass="passenger"/>
    <vehicle arrivalPos="25.00" arrivalSpeed="0.00" depart="70862.00" departPos="52.04" id="h944c2:1" type="default_021">
        <routeDistribution last="0">
            <route cost="4529.06" edges="-389831364 10425610#0 156923526#0 145069335#0 145069335#2 29002253 145069280#0 -145069391 145069286#0 32229741 32229742#1 32229742#3 32229742#4 32229742#5 145069311#0 32229973 -32229976 32084380 103396186 -103512667#1 -103512667#0 -145069347#2 25122830#0 32061928#2 32061928#4 24599188#0 24599188#0.75 24599188#0.94 172488482#0 -32124744 -201089423#2 22716549#0 24634509#0 24634507 24634508 -24693977#1 -24693977#0 -32999434#1 -24634414#5 -24634414#4 -24634414#3 24634416 315358253#1 315358253#2 315358253#3 402600768#0 402600768#1 51857517#0 51857517#0.33 51857517#1 51857516#1 -266565295#5 -266565295#4 -266565295#3 -266565295#2 148050448#0 148050456 -148050453#1 -266565295#0 -266565299 -24977590#1 -24977590#0 -233673425#1 -233673425#0 -266567307#1 -30404124 30417892 266567308#0 64464384#1 32009827 266567303 24971737#0 24971737#3 -32199989#1 -32199989#0 -32199969#5 -32199969#4 -32199969#1 -164051410#1 -164051410#0 24977473#0 54154922#0 54154922#1 26071515#0 26071515#1 4324820 164051399 201956817 33279254#1 556434727 542630099 354967545#0.45 354967545#1 -266887590#1 -266887590#0 -589179144 -266887589#2 -201926268#1 -266887588#1 -266887588#0 -266887593#6 -266887593#3 -266887591 -141058757 111525330#0 350320331#0 266885723#0 161680739 27453586#0 gneE119" probability="0.97569437"/>
            <route cost="209721.15" edges="-389831364 10425610#0 156923526#0 145069335#0 145069335#2 145069339#0 145069394#0 145069394#1 145069391 145069373#0 145069294#0 32201042 32201044#0 32201044#1 32201044#2 233673423 28418763 -379723624#1 -379723624#0 -32923867#4 -32923867#3 -32923867#2 -32923867#1 -32923867#0 130996520 130996520.58 172519650 306396705 174321447 58295043 32923863#2 266607804#0 266607804#1 266607804#2 4819338#0 4819338#1 4819338#2 4819338#4 163586462 28269810#0 28269810#2 28269810#3 28269810#4 28269810#5 -20975946#1 -20975939#1 201926265#1 201926265#2 -20266189#1 -20266189#0 -72883541#1 -20266190#2 -20266190#1 -266887593#3 -266887591 -141058757 111525330#0 350320331#0 266885723#0 161680739 27453586#0 gneE119" probability="0.01335916"/>
            <route cost="26677.62" edges="-389831364 -102818928#1 -102818928#0 -102818928#0.78 -61940355 -24495188 -29458641 -61940356 29458640#0 172517196 -38508400#1 gneE20 33779209#1 151167768#1 200946853 54033673#0 54033673#0.28 54033673#2 54033673#3 29458645 29458645.65 29458645.81 201278214#0 201278216#0 29458647#0 37282369 354967544#0 -28124729#3 -20588641#0 201926269#2 201926269#3 -266887588#1 -266887588#0 -266887593#6 -266887593#3 -266887591 -141058757 111525330#0 350320331#0 266885723#0 161680739 27453586#0 gneE119" probability="0.01060045"/>
            <route cost="61675.11" edges="-389831364 -102818928#1 -102818928#0 -102818928#0.78 -61940355 -24495188 -29458641 -61940356 29458640#0 172517198#0 305390324 -39649533 32923867#1 32923867#1.96 32923867#2 32923867#3 32923867#4 379723624#0 379723624#1 130996518#0 -233673423 145069386#0 32124563#0 342077199 -145069366#2 32350852#0 32350852#3 32350852#4 51857519#0 161678034#0 161678034#1 161678034#2 161678034#2.30 161678034#2.46 164051429#0 164051429#1 10425611#0 10425611#0.83 10425611#1 203971380 37480109 90587320 90587320.64 201926266 25380714#0 25597196#4 25597196#5 25597196#6 -153692837#3 -153692837#2 -25596855#0 25596974#1 -25640093#2 25597372 202070429#6 -25895945#2 -25895945#1 -175761127#1 -26180725#2 28132852 549032836 39704924 39704922 266507540 27392720 27392724 266507546 266507536 27550700 27454737 266507535 32930761 146973160 266885714 146973156#0 450076615#0 161680739 27453586#0 gneE119" probability="0.00032796"/>
            <route cost="271544.98" edges="-389831364 10425610#0 156923526#0 145069335#0 145069335#2 29002253 145069280#0 145069373#0 145069294#0 32201042 32201044#0 32201044#1 32201044#2 233673423 28418763 -379723624#1 -379723624#0 -32923867#4 -32923867#3 -32923867#2 -32923867#1 -32923867#0 130996520 130996520.58 172519650 306396705 174321447 58295043 32923863#2 266607804#0 266607804#1 266607804#2 266607803#0 266607803#1 266607803#2 266607792#0 266607792#5 200949176#0 200949176#1 116765451#0 116765451#3 390835794#0 390835794#1 266607799 168249926#0 168249926#1 29027936#0 29027936#1 233673413#0 233673413#1 207091130 207091132#0 207091132#1 207091132#2 207091132#3 207091132#4 266607796 266607798 233673420#0 233673420#1 201243230#0 201243230#1 233673410#0 233673410#1 233673410#5 233673410#6 266607801#0 266607801#1 266607802#0 266607802#1 266607795#0 266607795#1 266607795#6 266607800#0 201243226#0 266607805#0 266607805#1 32881185#0 51872703 28124854#0 28124854#1 51872706 51872706.54 -61671904 -55600044#2 -55600044#1 -55600044#0 -22603945#1 -22603945#1.86 -22603945#1.97 22603944#1 305495779#0 305495779#1 21224502 141058755#0 141058755#1 141058755#2 390842192#0 390842192#2 390842192#4 32530108#0 32530108#2 32530108#3 205182378#0 205182378#1 205182378#3 205182378#4 205182378#5 -20588629#1 20588627 -20588624#1 20405617#0 -589179136 -201926265#3 -20266189#1 -20266189#0 -72883541#1 -20266190#2 -20266190#1 -266887593#3 -266887591 -141058757 111525330#0 350320331#0 266885723#0 161680739 27453586#0 gneE119" probability="0.00001806"/>
        </routeDistribution>
    </vehicle>
    <vehicle arrivalPos="75.31" arrivalSpeed="0.00" depart="70900.00" departPos="28.81" id="h14052c2:3" type="default_021">
        <routeDistribution last="1">
            <route cost="16126.83" edges="-32234776#1 -103512667#2 -103512667#1 -145069287#7 -145069287#7.50 32230348 145069342#0 35926319#1 32230724 77912233 32200416 29027840 77912237 32200414#0 29027839#0 29027839#2 31343367#0 29048562#0 11014139#0 24991573 24991571 64464405 266567306 64464408 64464384#1 32009827 266567303 266567294#0 31342064#1 31342064#1.83 305495773#0 266507551 266507552#0 31021475 202070430 202070429#0 202070429#1 202070429#2 202070429#3 202070429#4 202070429#5 202070429#6 202070429#7 -149045269#4 -149045269#2 -149045269#1 gneE136 41139095 481432711 gneE132" probability="0.56863087"/>
            <route cost="4242.59" edges="-32234776#1 -103512667#2 -103512667#1 -103512667#0 -145069347#2 25122830#0 32061928#2 32061928#4 24599188#0 24599188#0.75 24599188#0.94 172488482#0 -32124744 -201089423#2 22716549#0 24634509#0 24634507 24634508 -24693977#1 -24693977#0 -32999434#1 -24634414#5 -24634414#4 -24634414#3 24634416 315358253#1 315358253#2 315358253#3 402600768#0 402600768#1 51857517#0 51857517#0.33 51857517#1 51857516#1 -266565295#5 -266565295#4 -266565295#3 -266565295#2 148050448#0 148050456 -148050453#1 -266565295#0 -266565299 -24977590#1 -24977590#0 -233673425#1 -233673425#0 -266567307#1 -30404124 30417892 266567308#0 64464384#1 32009827 266567303 266567294#0 31342064#1 31342064#1.83 305495773#0 266507551 266507552#0 31021475 202070430 202070429#0 202070429#1 202070429#2 202070429#3 202070429#4 202070429#5 -25597372 25640093#2 -25596974#1 -25596974#0 481432711 gneE132" probability="0.43127348"/>
            <route cost="49225.90" edges="-32234776#1 -103512667#2 -103512667#1 -103512667#0 -145069347#2 25122830#0 32061928#2 32061928#4 32061928#5 389840420#3 24972185#0 24972185#2 24972185#2.111 24972185#9 29048562#0 145069303#0 145069303#1 145069303#2 145069303#4 -26973015 24983010#0 24983010#1 161678033#0 51857519#0 161678034#0 161678034#1 161678034#2 161678034#2.30 161678034#2.46 164051429#0 164051429#1 10425611#0 10425611#0.83 10425611#1 203971380 37480109 90587320 90587320.64 201926266 25380714#0 25597196#4 25597196#5 25597196#6 -153692837#3 -153692837#2 -25596855#0 -25596974#0 481432711 gneE132" probability="0.00008727"/>
            <route cost="360027.28" edges="-32234776#1 -103512667#2 -103512667#1 -145069287#7 -145069287#7.50 145069328 145069363#0 145069272 145069331#0 145069287#0 145069287#0.136 103512667#1 103512667#2 32234776#0 32226141#0 358042226 52513194 300750369#0 145069325#0 145069384 37649448#0 37649448#1 145069394#0 145069394#1 145069391 145069373#0 145069294#0 32201042 32201044#0 32201044#1 32201044#2 233673423 28418763 -379723624#1 -379723624#0 -32923867#4 -32923867#3 -32923867#2 -32923867#1 -32923867#0 130996520 130996520.58 172519650 356952270 54033673#0 54033673#0.28 54033673#2 54033673#3 29458645 29458645.65 29458645.81 37282738 103718186 20975950#0 20975950#1 -20975942#2 -20975942#1 20975954#0 20975954#1 28269810#4 28269810#5 -20975946#1 -20975939#1 201926265#1 201926265#2 -20266189#1 -20266189#0 -72883541#1 -20266190#2 -20266190#1 -266887593#3 -266887591 -141058757 111525330#0 350320331#0 266885723#0 161680739 27453586#0 39970992#0 39970992#1 266885718#0 266885718#1 266885720 32930763 32930762 266507537 27454740 27454730 266507538 266507539 27392718 27392719 4058141 266507543 266507532 327975022 327975022.30 327975022.62 39704919 28091397 542650138 266507547 201789795 175761127#0 25895943#0 175761127#8 175761127#10 28132813 -25597372 25640093#2 -25596974#1 -25596974#0 481432711 gneE132" probability="0.00000782"/>
            <route cost="47796.47" edges="-32234776#1 -103512667#2 -103512667#1 -145069287#7 -145069287#7.50 145069328 145069363#0 145069272 145069362#0 107677354#1 77670297#0 77670297#1 32020916#0 77912233 32200416 29027840 77912237 32200414#0 29027839#0 29027839#2 31343367#0 29048562#0 145069303#0 145069303#1 145069303#2 145069303#4 -26973015 24983010#0 24983010#1 161678033#0 51857519#0 161678034#0 161678034#1 161678034#2 161678034#2.30 161678034#2.46 164051429#0 164051429#1 10425611#0 10425611#0.83 10425611#1 203971380 -203971378#1 -25192758 90587321#0 203971379#1 -54154922#1 -54154922#0 54154921#0 54154921#3 201926266 30482638#0 30482638#3 25640150 -92026769#12 -92026769#11 -92026769#5 -92026769#3 -92026769#2 -92026769#1 32350901#1 32350901#2 201789799#0 201789799#1 151167720#0 151167720#1 25596851#4 25596851#5 25596851#6 41139095 481432711 gneE132" probability="0.00000057"/>
        </routeDistribution>
    </vehicle>
    <vehicle arrivalPos="0.00" arrivalSpeed="0.00" depart="70906.00" departPos="51.36" id="h13725c1:1" type="default_021">
        <routeDistribution last="0">
            <route cost="106646.89" edges="25597196#7 25597196#10 25597196#12 201789797#1 gneE143 25596993#0 25596993#5 149045845 -149045266 201789796#1 30320943 23622426 -195073412#2 -195073412#1 -195073412#0 195073415 266507536 27550700 27454737 266507535 32930761 146973160 266885714 266885716 266885719 266885719.121 266885713 221257625.670 221257625.683 221257625.1565 221257625.1575" probability="0.25463609"/>
            <route cost="104213.41" edges="25597196#7 25597196#10 25597196#12 201789797#1 gneE143 149045269#0 149045269#2 149045269#3 -202070429#9 -25895945#2 -25895945#1 -175761127#1 -26180725#2 28132852 549032836 39704924 39704922 266507540 27392720 27392724 266507546 266507536 27550700 27454737 266507535 32930761 146973160 266885714 266885716 266885719 266885719.121 266885713 221257625.670 221257625.683 221257625.1565 221257625.1575" probability="0.22573063"/>
            <route cost="100233.02" edges="25597196#7 25597196#10 25597196#12 201789797#1 gneE143 149045269#0 149045269#2 149045269#3 201789794#0 201789794#3 308849647 266507550 30320943 23622426 -195073412#2 -195073412#1 -195073412#0 195073415 266507536 27550700 27454737 266507535 32930761 146973160 266885714 266885716 266885719 266885719.121 266885713 221257625.670 221257625.683 221257625.1565 221257625.1575" probability="0.18224020"/>
            <route cost="112493.13" edges="25597196#7 -25573260#2 -153692841#4 -153692837#4 -153692837#3 -153692837#2 -25596855#0 25596974#1 -25640093#2 25597372 202070429#6 202070429#7 201789794#0 201789794#3 308849647 266507550 30320943 23622426 -195073412#2 -195073412#1 -195073412#0 195073415 266507536 27550700 27454737 266507535 32930761 146973160 266885714 266885716 266885719 266885719.121 266885713 221257625.670 221257625.683 221257625.1565 221257625.1575" probability="0.17333150"/>
            <route cost="105616.64" edges="25597196#7 -25573260#2 -25573260#1 -25573254 -25573246#0 30482638#12 201789799#0 201789799#1 201789799#2 201789798#0 201789798#1 202070435#0 10941820 201880159#0 201880159#1 201880159#2 201789796#0.31 201789796#1 30320943 23622426 -195073412#2 -195073412#1 -195073412#0 195073415 266507536 27550700 27454737 266507535 32930761 146973160 266885714 266885716 266885719 266885719.121 266885713 221257625.670 221257625.683 221257625.1565 221257625.1575" probability="0.16406158"/>
        </routeDistribution>
    </vehicle>
    <vehicle arrivalPos="1.00" arrivalSpeed="0.00" depart="70918.00" departPos="39.11" id="randUni5383:1" type="random_021">
        <routeDistribution last="0">
            <route cost="39798.64" edges="29027839#0 29027839#2 31343367#0 29048562#0 145069303#0 145069303#1 145069303#2 145069303#4 -26973015 24983010#0 24983010#1 161678033#0 51857519#0 161678034#0 161678034#1 161678034#2 161678034#2.30 161678034#2.46 24970784#0 164051410#0 164051410#1 32199969#0 32199969#2 32199969#5 32199989#0" probability="0.60042979"/>
            <route cost="10919.36" edges="29027839#0 29027839#2 31343367#0 29048562#0 11014139#0 24991573 24991571 64464405 266567306 64464408 64464384#1 32009827 266567303 24971737#0 24971737#3 -32199989#1 -32199989#0 -32199969#5 25955085 -25955085 32199969#5 32199989#0" probability="0.04665162"/>
            <route cost="109332.97" edges="29027839#0 29027839#2 31343367#0 -24972185#9 -24972185#8 -24972185#8.373 -24972185#1 -32978638#3 -32978638#0 32021112#0 168702040#1 168702040#2 -24608846#1 -24608846#0 -160314345#5 -315358245 -202092675.36 -4942389#1 -4942389#0 386687235 42745545#0 42745545#2 42745545#3 42745545#4 42745545#5 42745545#5.128 42745545#6 28639688#0 28639688#1 28639688#3 116687469#0 248012815#0 248012815#1 30399325 30399322#1.56 30399322#2 30399322#3.66 542635729 31342347 32203023#0 32203023#2 32203023#2.134 31342350#0 144657087#0 144657087#1 144657087#2 144657087#3 25797433#0 25797433#1 25797433#2 25797433#3 29238187#0 25797084#0 25797084#1 25797084#2 24846867#3 -137463478#0 25796398#0 305390325#0 305390325#3 266567304#0 323248155#1 24971737#3 -32199989#1 -32199989#0 -32199969#5 25955085 -25955085 32199969#5 32199989#0" probability="0.00000207"/>
            <route cost="486366.30" edges="29027839#0 29027839#2 31343367#0 24537982#0 25993505#0 25993505#3 -25993505#5 -25993505#4 -25993505#3 -25993505#2 -24537982#1 -31343367#1 -29027839#2 -29027839#1 -51856492#2 -29238184#1 -145069300#1 -145069300#1.112 51856495#0 29458096 108239938 104236369 108310250 29119898 145069331#0 145069287#0 145069287#0.136 103512667#1 103512667#2 32234776#0 32226141#0 358042226 52513194 300750369#0 145069325#0 145069384 37649448#0 37649448#1 145069394#0 145069394#1 145069391 145069373#0 145069294#0 32201042 32201044#0 32201044#1 32201044#2 233673423 28418763 -379723624#1 -379723624#0 -32923867#4 -32923867#3 -32923867#2 -32923867#1 -32923867#0 130996520 130996520.58 172519650 306396705 174321447 58295043 32923863#2 266607804#0 266607804#1 266607804#2 4819338#0 4819338#1 4819338#2 4819338#4 163586462 28269810#0 28269810#2 28269810#3 28269810#4 28269810#5 -20975946#1 -20975939#1 -20975939#0 72883541#3 389840423#1 201926269#1 201926269#2 201926269#3 201926268#0 266887589#0 589179144 266887590#0 266887590#1 4268816#0 4268816#1 -201953160#4 -201953160#1 -140834255#1 -140834262#1 -26471939#1 -26471938 26471932#0 164051398 25188982#0 25192758 90587322#0 -10425611#1 -10425611#0 -10425611#0.35 -164051429#1 -164051429#0 24970784#0 164051410#0 164051410#1 32199969#0 32199969#2 32199969#5 32199989#0" probability="0.00001168"/>
            <route cost="7559.60" edges="29027839#0 29027839#2 31343367#0 24537982#0 24537982#2 24537982#3 24537982#4 266565302 380273343 -233673425#1 -233673425#0 -266567307#1 -30404124 30417892 266567308#0 64464384#1 32009827 266567303 24971737#0 24971737#3 -32199989#1 -32199989#0 -32199969#5 25955085 -25955085 32199969#5 32199989#0" probability="0.35290482"/>
        </routeDistribution>
    </vehicle>
    <vehicle arrivalPos="0.00" arrivalSpeed="0.00" depart="70920.00" departPos="78.70" id="h4511c1:1" type="default_021">
        <routeDistribution last="0">
            <route cost="194252.61" edges="32009827 266567303 266567294#0 25797090#1 201444272#0 201444272#1 201444272#3 29027727#0 29027727#4 29027727#6 29027727#7 29027727#9 152077572#0 152077572#2 152077572#2.79 54858974 542727960 30399316#0 30399316#0.52 30399316#2 51745097#0 51745097#1 4942660 -4942659#1 24537805#0 64442509#0 128070690 229018941 -72562672 -72562701 -27082004 -30131199 -72562650" probability="0.23921656"/>
            <route cost="173075.74" edges="32009827 266567303 24971737#0 24971737#3 -32199989#1 -32199989#0 -32199969#5 -32199969#4 23009002#0 -116765457#1 -116765457#0 -137463475#1 137463477#0 305390325#0 305390325#3 266567304#0 266567301#1 64464420 25955089 64464430 64464399#0 64464399#1 64464432#0 64464432#1 64464432#2 -24991571 -24991573 -11014139#1 -32009683#1 24537982#0 24537982#2 24537982#3 24537982#4 266565302 380273343 29238186 140684000#0 140684000#1 203127020#0 200741048 248012814 29119850 29119850.70 30399326#0 -137246371#2 -137246371#1 -138002149#2 -138002149#1 -138002149#0 -25316932#4 -10425532#5 -447569998#1 -447569997#0 -315358252#1 -129379922 -315358246 -129379920#1 -129379920#0 -129379921#1 -129379921#0 -315358250#1 -315358250#0 -379897806 -164078530 -315358244 -129379923 -315358243 -164078531#2 -164078531#1 -164078531#0 -164078531#0.84 -156788416#1 -627181818#1 -627181818#0 -32061997#2 -32061997#0 -542769276#1 -136618613#1 -136618613#0 -35744086#2 -126909938 -614568192 -126909931 -126909931.208 -25508272#0 gneE152 gneE151 gneE151.97 gneE149 -30131201#2 -30131201#0 -30131200#2 -30131200#0 -194377108#3 -194377108#0 -194377108#0.175 -192768914 -542730346#1 -542730346#0 -128070665#1 -128070665#0 -128070665#0.47 -128070667#1 -128070667#0 -128070666#1 -128070666#0 -72562672 -72562701 -27082004 -30131199 -72562650" probability="0.23763209"/>
            <route cost="140274.97" edges="32009827 266567303 24971737#0 24971737#3 -32199989#1 -32199989#0 -32199969#5 -32199969#4 -32199969#1 -164051410#1 -164051410#0 -24970784#3 -161678034#2 -161678034#2.33 -161678034#2.50 -161678034#1 -161678034#0 28119593 -24983010#2 -24983010#0 -24692391#3 -24692391#1 144659495 144659489 24762523#0 24762523#1 31773007 77670297#0 52572753#0 52572753#2 -32924041#3 145069323#0 32230349#0 25122830#0 32061928#2 32061928#4 24599188#0 24599188#0.75 24599188#0.94 172488482#0 -32124744 -201089423#2 22716549#0 24634509#0 24634507 24634508 -24693977#1 -24693977#0 -32999434#1 -24634414#5 -24634414#4 -24634414#3 -24634414#2 -24634414#1 -24634414#0 -40888350 -201950247#6 -201950247#5 -201950247#4 -201950247#3 -201950247#2 -201950247#1 -201950247#0 -201950250#2 -201950250#1 -201950250#0 -26677542#1 -26677542#0 201950263#7 129379967#0 -315358250#1 -315358250#0 -379897806 -164078530 -315358244 -129379923 -315358243 -164078531#2 -164078531#1 -164078531#0 -164078531#0.84 -156788416#1 -627181818#1 -627181818#0 -32061997#2 -32061997#0 -542769276#1 -136618613#1 -136618613#0 -35744086#2 -126909938 -614568192 -126909931 -126909931.208 -25508272#0 gneE152 gneE151 gneE151.97 gneE149 -30131201#2 -30131201#0 -30131200#2 -30131200#0 -194377108#3 -194377108#0 -194377108#0.175 -192768914 -542730346#1 -542730346#0 -128070665#1 -128070665#0 -128070665#0.47 -128070667#1 -128070667#0 -128070666#1 -128070666#0 -72562672 -72562701 -27082004 -30131199 -72562650" probability="0.23318626"/>
            <route cost="214401.52" edges="32009827 266567303 266567294#0 31342064#1 31342064#1.83 25902677#0 137463478#0 137463478#1 137463478#2 -25797433#3 -25797433#2 25797315#2 -274823622#7 -274823622#3 25895966#0 -32202510#1 32202328 -31342351#1 23009600#0 23009600#2 153220338#0 153220338#2 51745097#0 51745097#1 4942660 -4942659#1 24537805#0 64442509#0 128070690 229018941 -72562672 -72562701 -27082004 -30131199 -72562650" probability="0.17680914"/>
            <route cost="298287.94" edges="32009827 266567303 24971737#0 24971737#3 -32199989#1 25955087#1 -25955087#2 32199989#1 323248156#0 266567301#1 64464420 25955089 64464430 32009826#0 32009826#1 31342305 30404124 266567307#0 233673425#0 233673425#1 24977590#0 24977590#1 266565299 266565295#0 266565295#1 266565295#2 266565295#3 266565295#4 266565295#5 32999435 29236658#2 -24608844 -160314345#6 -160314345#5 -315358245 -202092675.36 -4942389#1 -4942389#0 -136436466 -315358251#1 -315358251#0 -315358242#2 -315358242#1 -315358242#0 -129379925 -129379918#1 -315358252#1 -129379922 -315358246 -129379920#1 -129379920#0 -129379921#1 -129379921#0 -315358250#1 -315358250#0 -379897806 -164078530 -315358244 -129379923 -315358243 -164078531#2 -164078531#1 -164078531#0 -164078531#0.84 -156788416#1 -627181818#1 -627181818#0 -32061997#2 -32061997#0 -542769276#1 -136618613#1 -136618613#0 -35744086#2 -126909938 -614568192 -126909931 -126909931.208 -25508272#0 gneE152 gneE151 gneE151.97 gneE149 -30131201#2 -30131201#0 -30131200#2 -30131200#0 -194377108#3 -194377108#0 -194377108#0.175 -192768914 -542730346#1 -542730346#0 -128070665#1 -128070665#0 -128070665#0.47 -128070667#1 -128070667#0 -128070666#1 -128070666#0 -72562672 -72562701 -27082004 -30131199 -72562650" probability="0.11315595"/>
        </routeDistribution>
    </vehicle>
    <vehicle arrivalPos="200.00" arrivalSpeed="0.00" depart="70924.00" departPos="164.09" id="h45c1:3" type="default_021">
        <routeDistribution last="0">
            <route cost="4854.89" edges="-31362504#3 32923867#1 32923867#1.96 32923867#2 32923867#3 32923867#4 379723624#0 379723624#1 130996518#0 -233673423 -32201044#2 -32201044#1 145069336#0 145069336#1 145069336#2 145069280#0 -145069391 145069286#0 32229741 32229742#1 32229742#3 32229742#4 32229742#5 145069311#0 32229973 32229975#0 32229975#1 32229975#2 37451605 -32202011#1 51856496#8 204388144#0 204388144#1 -33102476 -36689751#2 10425609#0 10425609#1 201963537#1 -164051413 -653473569#5 -653473569#4 25145011#0 -25145012#5 -25145012#4 -25145012#3 -25187889 25145014#1 25187891 -136728347#4 -201963533#5 -201963533#4 -201963533#1 -201963533#1.120 -201963533#1.145 -201963533#0 -285549250#1 -128361102#1 23623674#0 23623674#11 27998675#1 27998676#0 148529632#0 148529632#1 148529632#2 148529632#3 148529632#4 29353676#0 29353676#1 29353676#2 -24754837#0 23622520#0 -37256211 173658909 -391606911#3 -391606911#2 -391606911#1 -391606911#0 -325180705#3" probability="0.94215814"/>
            <route cost="53751.62" edges="-31362504#3 32923867#1 32923867#1.96 32923867#2 32923867#3 32923867#4 379723624#0 379723624#1 130996518#0 -233673423 -32201044#2 -32201044#1 145069336#0 145069336#1 145069336#2 145069280#0 145069369#0 145069371#0 25148803 25148808 32229742#3 32229742#4 32229742#5 145069311#0 145069316#0 145069316#1 145069313#2 -103512667#2 -103512667#1 -103512667#0 103512671 -33102477 18909061#0 389831363#0 32061928#2 32061928#4 24599188#0 24599188#0.75 24599188#0.94 172488482#0 -32124744 -201089423#2 22716549#0 24634509#0 24634509#1 160314351#0 160314351#1 24608845 24634505 201238724 201238718#1 201238718#2 174800513 201201953#0 40888360#0 22724699#2 22724699#3 22724699#7 137132998 201143840 201234440 -379510292 -28319300#2 201089420#0 315358257#0 315358257#0.43 -315358254#1 -164078536 -320733909#2 -320733909#0 -320733910#1 -23622271#6 -23622271#5 -23622271#1 203127018 137672872 137672874#0 320733913 77414800#0 gneE4 148351766 220013328 139429268 320733893 125002615#0 125002615#1 125002604#0 148527679#0 320733892#0 320733892#2 320733892#3 82628963#0 82628963#3 82628963#4 307562643#1 307562643#2 266561178#0 -266561174#1 -391606911#4 -391606911#3 -391606911#2 -391606911#1 -391606911#0 -325180705#3" probability="0.05582770"/>
            <route cost="296917.22" edges="-31362504#3 -32923867#0 130996520 130996520.58 172519650 356952270 54033673#0 54033673#0.28 54033673#2 54033673#3 29458645 29458645.65 29458645.81 201278214#0 201278216#0 29458647#0 37282369 354967544#0 354967544#1 354967544#2 4268816#0 4268816#1 -201953160#4 -201953160#1 -140834255#1 -140834262#1 -26471939#1 -26471938 26471932#0 164051398 25188982#0 25192758 203971378#0 37480109 90587320 90587320.64 201926266 30482638#0 -25595895#1 -25595895#0 -25596855#3 -25596861#2 -25596861#1 25640093#5 -25640098#0 60066780 110435734 115082348#0 115082348#1 115082348#3 115082348#4 257907858#0 27202149 202070427#0 202070427#1 202070427#2 33280103#0 71900674#0 71900674#1 25895864#0 25895864#1 -26176222#0 25797433#0 25797433#1 25797433#2 25797433#3 137463478#3 29238188#0 -25665374 29027727#6 29027727#7 29027727#9 152077572#0 152077572#2 152077572#2.79 54858974 4942408 54858973#0 54858973#0.62 54858973#1 54858973#2 29119849#0 29119849#1 29119850 29119850.70 30399326#0 -137246371#2 -137246371#1 -138002149#2 -138002149#1 -138002149#0 -25316932#4 -10425532#5 -447569998#1 -447569997#0 -315358252#1 -129379922 -315358246 -129379920#1 -129379920#0 -129379921#1 -129379921#0 129379968 -201950263#10 -201950263#6 -25117391#2 -25117391#1 315358257#0 315358257#0.43 -315358255#4 -286646456#2 224892361#1 224892361#2 224892361#3 224892361#7 -170018165#0 137133006#0 175770996#0 201238729#3 201238729#5 201238729#6 138002148 128361091 379795371 378946906 449057059 449057052 109483352#0 109483352#1 -201238725#5 -201238725#3 -201238725#2 -201238725#1 -24754876#13 -24754876#11 -24754876#10 -24754876#7 -24754876#6 -24754876#4 -24754876#3 -24754876#2 -24754876#0 -41139660#1 -390068133#1 -390068133#0 -393420112#0 -23622520#2 -23622520#1 -37256211 173658909 -391606911#3 -391606911#2 -391606911#1 -391606911#0 -325180705#3" probability="0.00149325"/>
            <route cost="47988.84" edges="-31362504#3 -32923867#0 130996520 130996520.58 172519650 305390333 172515812#0 306086241 61940356 172515808 24495188 61940355 201969576#0 201969576#1 201969576#2 201969576#5 201969576#6 201969576#7 29497467 124812856#0 124812856#1 201956810 173169611#1 25149251#0 25149251#1 25149251#2 25149251#3 25149251#4 25149251#5 -30482615#4 -30482614 -25122731#1 18809673#0 18809673#7 18809673#9 18809673#12 18809673#13 392631301 23622107#0 23622107#3 23622107#4 23622107#7 23622107#8 25341141#0 25341141#1 164051424 201202386#0 201201948 164051420#0 164051420#1 24754881#0 24754881#2 24754881#5 -24754837#7 -24754837#4 -24754837#3 23623701#0 23623701#1 23623701#2 29353676#2 -24754837#0 -393420116#5 -393420116#4 -393420116#2 -266561174#1 -391606911#4 -391606911#3 -391606911#2 -391606911#1 -391606911#0 -325180705#3" probability="0.00033175"/>
            <route cost="42027.99" edges="-31362504#3 -32923867#0 130996520 130996520.58 172519650 305390333 172515812#0 306086241 61940356 172515808 24495188 61940355 201969576#0 201969576#1 201969576#2 201969576#5 151167738#0 151167738#1 151167738#2 23442105#0 23442105#1 -26809976#1 -26809976#0 23442105#4 38305646#0 38305646#1 138300621#0 24614922#0 26729232#1 201956812 201956813#0 201956813#1 26729233#0 26729233#1 93128023#0 93128023#1 93128023#2 28014156#0 28014156#1 31025769#2 93128040#0 -107431496#1 -164051417#1 200741155 392631301 23622107#0 23622107#3 23622107#4 23622107#7 23622107#8 25341141#0 25341141#1 164051424 201202386#0 201201948 164051420#0 164051420#1 24754881#0 24754881#2 24754881#5 -24754837#7 -24754837#4 -24754837#3 -24754837#2 -24754837#1 -24754837#0 23622520#0 -37256211 173658909 -391606911#3 -391606911#2 -391606911#1 -391606911#0 -325180705#3" probability="0.00018917"/>
        </routeDistribution>
    </vehicle>
    <vehicle arrivalPos="174.90" arrivalSpeed="0.00" depart="70930.00" departPos="99.61" id="randUni24736:1" type="random_021">
        <routeDistribution last="1">
            <route cost="3626.05" edges="26809976#1 23442105#2 -25534317#1 25534318 38305646#1 38305646#2 38305646#3 -173169612 -173169611#4 -173169611#3 -173169611#0 201956820 -29497467 -201969576#7 -201969576#6 -201969576#5 -201969576#4 -201969576#1 -201969576#0 -61940355 -24495188 -29458641 -61940356 29458640#0 172517196 -38508400#1 gneE20 33779209#1 -103718173 -27893434#1 -27893434#0 -23184317 20975948#0 20975948#1 20975948#2 20975952#2 -28269810#1 -163586462 -4819338#4 -4819338#3 -4819338#1 -4819338#0 266607803#0 266607803#1 266607803#2 266607792#0" probability="0.56293988"/>
            <route cost="10402.27" edges="26809976#1 -23442105#1 -23442105#0 -151167738#2 -151167738#1 -151167738#0 -201969576#5 -201969576#4 -201969576#1 -201969576#0 -61940355 -24495188 -29458641 -61940356 29458640#0 172517196 -38508400#1 gneE20 33779209#1 174321447 58295043 32923863#2 266607804#0 266607804#1 266607804#2 266607803#0 266607803#1 266607803#2 266607792#0" probability="0.42795016"/>
            <route cost="19817.52" edges="26809976#1 -23442105#1 -23442105#0 -151167738#2 -151167738#1 -151167738#0 -201969576#5 -201969576#4 -201969576#1 -201969576#0 -61940355 -24495188 -29458641 -61940356 29458640#0 172517196 -38508400#1 -174609517#3 -33814393#3 -33814393#1 -33814393#0 -391208988 26339462#0 201933880#0 201933880#3 26339468#0 26339471#0 26339471#1 26339472#1 266607803#2 266607792#0" probability="0.00910030"/>