<routes >
    <vType color="red" id="default_009" vClass="passenger"/>
    <vType color="blue" id="random_009" vClass="passenger"/>
    <vehicle arrivalPos="0.00" arrivalSpeed="0.00" depart="37603.00" departPos="157.57" id="h679c2:1" type="default_009">
        <routeDistribution last="0">
            <route cost="101948.38" edges="25850440#0 32200415#0 32200414#0 29027839#0 29027839#2 31343367#0 24537982#0 24537982#2 24537982#3 24537982#4 266565302 380273343 -233673425#1 -233673425#0 -266567307#1 -30404124 30417892 266567308#0 64464384#1 32009827 266567303 266567294#0 31342064#1 31342064#1.83 305495773#0 266507551 266507552#0 31021475 202070430 202070429#0 202070429#1 202070429#2 202070429#3 202070429#4 202070429#5 202070429#6 202070429#7 201789794#0 201789794#3 308849647 266507550 30320943 23622426 -195073412#2 -195073412#1 -195073412#0 195073415 266507536 27550700 27454737 266507535 32930761 146973160 266885714 266885716 266885719 266885719.121 266885713 221257625.670 221257625.683 221257625.1565 221257625.1575" probability="0.20907255"/>
            <route cost="101353.34" edges="25850440#0 32200415#0 32200414#0 29027839#0 29027839#2 31343367#0 29048562#0 145069303#0 145069303#1 145069303#2 145069303#4 -26973015 24983010#0 24983010#1 161678033#0 51857519#0 161678034#0 161678034#1 161678034#2 161678034#2.30 161678034#2.46 164051429#0 164051429#1 10425611#0 10425611#0.83 10425611#1 203971380 37480109 90587320 90587320.64 201926266 30482638#0 30482638#3 30482638#4 30482638#9 30482638#10 30482638#11 30482638#12 201789799#0 201789799#1 201789799#2 201789798#0 201789798#1 202070435#0 202070435#1 202070435#2 202070435#5 202070435#5.37 202070435#5.70 202070435#9 202070435#12 202070435#13 40059576#0 -157305700#5 -157305700#3 -157305700#2 -157305700#1 -157305700#0 157305703 638602238 -138300617#4 -138300617#3 138300629 306793669 32976752 28091398 327975022 327975022.30 327975022.62 39704920 151167740 266507555 266507558 39704924 39704922 266507540 27392720 27392724 266507546 266507536 27550700 27454737 266507535 32930761 146973160 266885714 266885716 266885719 266885719.121 266885713 221257625.670 221257625.683 221257625.1565 221257625.1575" probability="0.19971816"/>
            <route cost="102349.31" edges="25850440#0 32200415#0 32200414#0 29027839#0 29027839#2 31343367#0 29048562#0 11014139#0 24991573 24991571 64464405 266567306 64464408 64464384#1 32009827 266567303 266567294#0 31342064#1 31342064#1.83 305495773#0 266507551 266507552#0 31021475 202070430 202070429#0 202070429#1 202070429#2 202070429#3 202070429#4 202070429#5 202070429#6 -25895945#2 -175761127#7 -175761127#1 -26180725#2 28132852 549032836 39704924 39704922 266507540 27392720 27392724 266507546 266507536 27550700 27454737 266507535 32930761 146973160 266885714 266885716 266885719 266885719.121 266885713 221257625.670 221257625.683 221257625.1565 221257625.1575" probability="0.19763443"/>
            <route cost="101563.40" edges="25850440#0 32200415#0 32200414#0 29027839#0 29027839#2 31343367#0 29048562#0 11014139#0 24991573 24991571 64464405 266567306 64464408 64464384#1 32009827 266567303 266567294#0 31342064#1 31342064#1.83 305495773#0 266507551 266507552#0 27202149 202070427#0 202070427#1 202070427#2 33280103#0 33280103#1 33280103#2 33280103#3 33280103#4 33280103#4.68 391208990 391029009#0 391029009#0.69 391029009#1 391029009#1.157 41425835 41425835.214 41425835.236 151167747 151167747.23 549032836 39704924 39704922 266507540 27392720 27392724 266507546 266507536 27550700 27454737 266507535 32930761 146973160 266885714 266885716 266885719 266885719.121 266885713 221257625.670 221257625.683 221257625.1565 221257625.1575" probability="0.19762906"/>
            <route cost="102877.23" edges="25850440#0 32200415#0 32200414#0 29027839#0 29027839#2 31343367#0 29048562#0 145069303#0 145069303#1 145069303#2 145069303#4 -26973015 24983010#0 24983010#1 161678033#0 51857519#0 161678034#0 161678034#1 161678034#2 161678034#2.30 161678034#2.46 164051429#0 164051429#1 4324827#0 203971381#0 203971381#1 4324820 164051399 201956817 33279254#1 556434727 542630099 354967545#0.45 354967545#1 -266887590#1 -266887590#0 -589179144 -266887589#2 -201926268#1 -201926269#3 -201926269#2 -201926269#1 20266191 -20266190#1 -266887593#3 -266887591 -141058757 111525330#0 350320331#0 266885723#0 161680732 146973150#0 266885719 266885719.121 266885713 221257625.670 221257625.683 221257625.1565 221257625.1575" probability="0.19594580"/>
        </routeDistribution>
    </vehicle>
    <vehicle arrivalPos="0.00" arrivalSpeed="0.00" depart="37611.00" departPos="88.55" id="h389c2:1" type="default_009">
        <routeDistribution last="0">
            <route cost="101651.18" edges="35926319#1 32230724 77912233 32200416 29027840 77912237 32200414#0 29027839#0 29027839#2 31343367#0 24537982#0 24537982#2 24537982#3 24537982#4 266565302 380273343 29238186 140684000#0 140684000#1 203127020#0 200741048 24890450 248012815#1 30399325 30399322#1.56 30399322#2 30399322#3.66 542635729 31342347 32203023#0 32203023#2 32203023#2.134 31342350#0 31342350#1 31342350#2 31342350#2.130 391208990 391029009#0 391029009#0.69 391029009#1 391029009#1.157 41425835 41425835.214 41425835.236 151167747 151167747.23 549032836 39704924 39704922 266507540 27392720 27392724 266507546 266507536 27550700 27454737 266507535 32930761 146973160 266885714 266885716 266885719 266885719.121 266885713 221257625.670 221257625.683 221257625.1565 221257625.1575" probability="0.20421566"/>
            <route cost="101381.62" edges="35926319#1 32230724 77912233 32200416 29027840 77912237 32200414#0 29027839#0 29027839#2 31343367#0 29048562#0 145069303#0 145069303#1 145069303#2 145069303#4 -26973015 24983010#0 24983010#1 161678033#0 51857519#0 161678034#0 161678034#1 161678034#2 161678034#2.30 161678034#2.46 164051429#0 164051429#1 10425611#0 10425611#0.83 10425611#1 203971380 37480109 90587320 90587320.64 201926266 30482638#0 30482638#3 30482638#4 30482638#9 30482638#10 30482638#11 30482638#12 201789799#0 201789799#1 201789799#2 201789798#0 201789798#1 202070435#0 202070435#1 202070435#2 202070435#5 202070435#5.37 202070435#5.70 202070435#9 202070435#12 202070435#13 40059576#0 -157305700#5 -157305700#3 -157305700#2 -157305700#1 -157305700#0 157305703 638602238 -138300617#4 -138300617#3 138300629 306793669 32976752 28091398 327975022 327975022.30 327975022.62 39704920 151167740 266507555 266507558 39704924 39704922 266507540 27392720 27392724 266507546 266507536 27550700 27454737 266507535 32930761 146973160 266885714 266885716 266885719 266885719.121 266885713 221257625.670 221257625.683 221257625.1565 221257625.1575" probability="0.20027034"/>
            <route cost="101593.54" edges="35926319#1 32230724 77912233 32200416 29027840 77912237 32200414#0 29027839#0 29027839#2 31343367#0 29048562#0 11014139#0 24991573 24991571 64464405 266567306 64464408 64464384#1 32009827 266567303 266567294#0 31342064#1 31342064#1.83 305495773#0 266507551 266507552#0 27202149 202070427#0 202070427#1 202070427#2 33280103#0 33280103#1 33280103#2 33280103#3 33280103#4 33280103#4.68 391208990 391029009#0 391029009#0.69 391029009#1 391029009#1.157 41425835 41425835.214 41425835.236 151167747 151167747.23 549032836 39704924 39704922 266507540 27392720 27392724 266507546 266507536 27550700 27454737 266507535 32930761 146973160 266885714 266885716 266885719 266885719.121 266885713 221257625.670 221257625.683 221257625.1565 221257625.1575" probability="0.19903238"/>
            <route cost="102362.98" edges="35926319#1 32230724 77912233 32200416 29027840 77912237 32200414#0 29027839#0 29027839#2 31343367#0 29048562#0 11014139#0 24991573 24991571 64464405 266567306 64464408 64464384#1 32009827 266567303 266567294#0 31342064#1 31342064#1.83 305495773#0 266507551 266507552#0 31021475 202070430 202070429#0 202070429#1 202070429#2 202070429#3 202070429#4 202070429#5 202070429#6 -25895945#2 -175761127#7 -175761127#1 -26180725#2 28132852 549032836 39704924 39704922 266507540 27392720 27392724 266507546 266507536 27550700 27454737 266507535 32930761 146973160 266885714 266885716 266885719 266885719.121 266885713 221257625.670 221257625.683 221257625.1565 221257625.1575" probability="0.19898357"/>
            <route cost="101727.19" edges="35926319#1 32230724 77912233 32200416 29027840 77912237 32200414#0 29027839#0 29027839#2 31343367#0 29048562#0 145069303#0 145069303#1 145069303#2 145069303#4 -26973015 24983010#0 24983010#1 161678033#0 51857519#0 161678034#0 161678034#1 161678034#2 161678034#2.30 161678034#2.46 164051429#0 164051429#1 10425611#0 10425611#0.83 10425611#1 203971380 37480109 90587320 90587320.64 201926266 30482638#0 30482638#3 30482638#4 30482638#9 30482638#10 30482638#11 30482638#12 201789799#0 201789799#1 201789799#2 201789798#0 201789798#1 202070435#0 10941820 201880159#0 201880159#1 201880159#2 201789796#0.31 201789796#1 30320943 378466167 266507548 257907861 151167740 266507555 266507558 39704924 39704922 266507540 27392720 27392724 266507546 266507536 27550700 27454737 266507535 32930761 146973160 266885714 266885716 266885719 266885719.121 266885713 221257625.670 221257625.683 221257625.1565 221257625.1575" probability="0.19749805"/>
        </routeDistribution>
    </vehicle>
    <vehicle arrivalPos="200.00" arrivalSpeed="0.00" depart="37612.00" departPos="52.90" id="h1580c1:1" type="default_009">
        <routeDistribution last="2">
            <route cost="448.99" edges="-25209894#0 -28111977#7 -28111977#6 -28111977#5 -28111977#4 -28111977#3 -32395464 -31860333#2 -28111977#1 37681424#1 -18809672#5 -18809672#4 -18809672#1 -285549250#1 -128361102#1 128361107#0 128361107#1 449057056 378946908 128361091 379795371 378946906 128361098 -35926528#2 -35926528#1 -130185488#3 -130185488#2 -130185488#0 -136728344#5 -136728344#4 -136728344#3 -136728344#2 -136728344#0 -23623717 -393420116#2 -266561174#1 -391606911#4 -391606911#3 -391606911#2 -391606911#1 -391606911#0 -325180705#3" probability="0.22743247"/>
            <route cost="437.80" edges="-25209894#0 -28111977#7 -28111977#6 -28111977#5 -28111977#4 -28111977#3 -28111977#2 -28111977#1 37681424#1 -18809672#5 -18809672#4 -18809672#1 -285549250#1 -128361102#1 128361107#0 128361107#1 449057056 378946908 128361091 379795371 378946906 128361098 -35926528#2 -35926528#1 -130185488#3 -130185488#2 -130185488#0 -136728344#5 -136728344#4 -136728344#3 -136728344#2 -136728344#0 -266561177#1 -266561177#0 -27830333#1 -27830333#0 -266561174#1 -391606911#4 -391606911#3 -391606911#2 -391606911#1 -391606911#0 -325180705#3" probability="0.22309165"/>
            <route cost="446.07" edges="-25209894#0 -28111977#7 -28111977#6 26642362#1 26642362#2 26642362#3 26642362#4 -201963533#5 -201963533#4 -201963533#1 -201963533#1.120 -201963533#1.145 -201963533#0 -285549250#1 -128361102#1 128361107#0 128361107#1 449057056 378946908 128361091 379795371 378946906 449057059 449057052 109483352#0 109483352#1 -201238725#5 -201238725#3 27998676#0 148529632#0 148529632#1 148529632#2 148529632#3 148529632#4 29353676#0 29353676#1 29353676#2 -24754837#0 -393420116#5 -393420116#4 -393420116#2 -266561174#1 -391606911#4 -391606911#3 -391606911#2 -391606911#1 -391606911#0 -325180705#3" probability="0.20390388"/>
            <route cost="537.24" edges="-25209894#0 -28111977#7 -28111977#6 -26642362#0 -25136986 -18813598#6 -18813598#1 18809673#0 18809673#7 18809673#9 18809673#12 18809673#13 392631301 23622107#0 23622107#3 23622107#4 23622107#7 23622107#8 25341141#0 25341141#1 164051424 201202386#0 201201948 164051420#0 164051420#1 -24754876#13 -24754876#11 -24754876#10 -24754876#7 -24754876#6 -24754876#4 -24754876#3 -24754876#2 -24754876#0 -41139660#1 -390068133#1 -390068133#0 -393420112#0 -23622520#2 -23622520#1 -37256211 173658909 -391606911#3 -391606911#2 -391606911#1 -391606911#0 -325180705#3" probability="0.12400628"/>
            <route cost="422.32" edges="-25209894#0 -28111977#7 -28111977#6 26642362#1 26642362#2 26642362#3 26642362#4 -201963533#5 -201963533#4 -201963533#1 -201963533#1.120 -201963533#1.145 -201963533#0 -285549250#1 -128361102#1 128361107#0 128361107#1 449057056 378946908 128361091 379795371 378946906 128361098 -35926528#2 -35926528#1 -130185488#3 -130185488#2 -130185488#0 -136728344#5 -136728344#4 -136728344#3 -136728344#2 -136728344#0 -266561177#1 -266561177#0 -27830333#1 -27830333#0 -266561174#1 -391606911#4 -391606911#3 -391606911#2 -391606911#1 -391606911#0 -325180705#3" probability="0.22156571"/>
        </routeDistribution>
    </vehicle>
    <vehicle arrivalPos="0.00" arrivalSpeed="0.00" depart="37629.00" departPos="4.04" id="h3422c1:3" type="default_009">
        <routeDistribution last="3">
            <route cost="100915.12" edges="-160314345#1 -160314345#0 -160314346#1 -160314346#0 24634505 24634510#0 24634510#1 24634510#6 204588664#0 23436553#3 -22690205#3 -22690205#2 -22690205#1 233675413#4 -25145011#2 -25145012#5 -25145012#4 -25145012#3 -25145012#2 -25145012#1 -25145012#0 25209894#1 25145014#3 25145014#4 26642362#2 -22716073 -22716072#3 -18809672#1 -285549250#1 -128361102#1 128361107#0 128361107#1 449057056 378946908 128361091 379795371 378946906 128361098 -35926528#2 -35926528#1 -130185488#3 -130185488#2 -130185488#0 -136728344#5 -136728344#4 -136728344#3 -136728344#2 -136728344#0 -266561177#1 -266561177#0 -27830333#1 -27830333#0 -266561174#1 -391606911#4 -391606911#3 -391606911#2 -391606911#1 37255717#0 37255717#3 37255717#4 -37255726#5 -37255726#0 307562643#1 148527691#0 148527687#0 148527687#1 148527687#2 148527687#3 148527686 -320733892#2 -320733892#1 37255739#0 37255739#1 37255739#2 37255739#3 320733895#0 297594880#0 297594880#1 297778952 314970097 314970098#0 gneE9 305397289#1 379795390#2 161783482#0 161783482#1 -320733903#2" probability="0.20881501"/>
            <route cost="100548.95" edges="-160314345#1 -160314345#0 -160314346#1 -160314346#0 24634505 24634510#0 24634510#1 24634510#6 24634510#7 24634510#9 24634510#16 201238726#0 201238726#0.117 201238726#1 201238729#1 201238729#2 201238729#3 201238729#5 201238729#6 138002148 128361091 379795371 378946906 128361098 -35926528#2 -35926528#1 -130185488#3 -130185488#2 -130185488#0 -136728344#5 -136728344#4 -136728344#3 -136728344#2 -136728344#0 -266561177#1 -266561177#0 -27830333#1 -27830333#0 -266561178#1 -307562643#2 -307562643#1 -307562643#0 -82628963#3 -82628963#2 -320733892#4 -320733892#2 -320733892#1 37255739#0 37255739#1 37255739#2 37255739#3 320733895#0 297594880#0 297594880#1 297778952 314970097 314970098#0 gneE9 305397289#1 379795390#2 161783482#0 161783482#1 -320733903#2" probability="0.19998109"/>
            <route cost="100399.03" edges="-160314345#1 -160314345#0 201238718#0 201238718#1 201238718#2 174800513 201201953#0 201201953#2 201201953#4 201201953#10 201201953#12 176550246 201238719#0 170018165#0 170018165#1 170018165#2 170018165#2.175 306240162#0 306240162#4 148352067 193806654 193806654.200 193806654.211 193806654.258 193806654.273 148351766 220013328 139429268 320733893 4396674#0 4396674#1 125002584#0 125002584#2 297778952 314970097 314970098#0 gneE9 305397289#1 379795390#2 161783482#0 161783482#1 -320733903#2" probability="0.19912716"/>
            <route cost="100359.33" edges="-160314345#1 -160314345#0 -160314346#1 -160314346#0 24634505 24634510#0 24634510#1 24634510#6 24634510#7 24634510#9 24634510#16 201238726#0 201238726#0.117 201238726#1 201238719#0 170018165#0 170018165#1 170018165#2 170018165#2.175 306240162#0 306240162#4 148352067 193806654 193806654.200 193806654.211 193806654.258 193806654.273 148351766 220013328 139429268 320733893 4396674#0 4396674#1 125002584#0 125002584#2 297778952 314970097 314970098#0 gneE9 305397289#1 379795390#2 161783482#0 161783482#1 -320733903#2" probability="0.19928233"/>
            <route cost="100410.19" edges="-160314345#1 -160314345#0 201238718#0 201238718#1 201238718#2 174800513 201201945#0 201201945#1 201201945#2 201201945#3 201201945#7 201201945#8 201089420#0 315358257#0 315358257#0.43 -315358255#4 -286646456#2 -286646456#0 -224251774#1 -224251774#0 224251776#0 306240162#0 306240162#4 148352067 77414810#0 138396239#1 320733916 320733913 77414800#0 gneE4 148351766 220013328 139429268 320733893 4396674#0 4396674#1 125002584#0 125002584#2 297778952 314970097 314970098#0 gneE9 305397289#1 379795390#2 161783482#0 161783482#1 -320733903#2" probability="0.19279439"/>
        </routeDistribution>
    </vehicle>
    <vehicle arrivalPos="230.00" arrivalSpeed="0.00" depart="37637.00" departPos="72.13" id="h9544c1:1" type="default_009">
        <routeDistribution last="4">
            <route cost="781.09" edges="25597196#2 25597196#3 -25380714#1 -201926266 -54154921#3 -54154921#2 54154922#0 54154922#1 26071515#0 26071515#1 4324820 164051399 201956817 33279254#1 556434727 542630099 354967545#0.45 354967545#1 141058765#0 141058765#1 141058765#2 141058765#2.33 31624236#0 172700927#0 -48742425#2 -48742425#1 -48742425#0 -205182378#15 -205182378#14 -205182378#13 -205182378#12 -205182378#11 -205182378#9 -205182378#7 -205182378#6 -205182378#5 -205182378#4 -205182378#3 -205182378#2 -205182378#0 -32530108#5 -32530108#2 -32530108#1 -390842192#4 -390842192#3 -390842192#1 -141058755#4 -141058755#1 -141058755#0 -51262567#1 22603944#0 22603945#0 22603945#1.135 22603945#1.145 55600044#0 55600044#1 55600044#2 61671904 -51872706 -51872707 -28124854#0 -51872703 -32881185#1 41494424#0 233673422#0 233673422#2 233673422#4 233673422#5 233673422#7 233673422#9" probability="0.41382606"/>
            <route cost="726.12" edges="25597196#2 25597196#3 -25380714#1 -201926266 -54154921#3 -54154921#2 54154922#0 54154922#1 26071515#0 26071515#1 4324820 164051399 201956817 33279254#1 556434727 542630099 354967545#0.45 354967545#1 141058765#0 141058765#1 141058765#2 141058765#2.33 103718178 -201278216#1 -201278214#1 -29458645 -29458645.13 -29458645.28 131118468#0 131118468#0.16 131118468#1 131118468#3 131118468#4 305390335 201278218#0 306396705 174321447 58295043 32923863#2 266607804#0 266607804#1 266607804#2 266607803#0 266607803#1 266607803#2 266607792#0 266607792#5 200949176#0 200949176#1 116765451#0 116765451#3 390835794#0 390835794#1 266607799 168249926#0 168249926#1 -207091116#1 25375417#0 25375417#6 25375417#7 25375417#8 25375417#9 25375417#10 25375417#11 25375417#12 -25375814#1 233673410#6 266607801#0 266607801#1 266607802#0 266607802#1 266607795#0 266607795#1 266607795#6 266607800#0 201243226#0 266607805#0 266607805#1 41494424#0 233673422#0 233673422#2 233673422#4 233673422#5 233673422#7 233673422#9" probability="0.17189792"/>
            <route cost="733.89" edges="25597196#2 25597196#3 -25380714#1 -201926266 -90587320 -37480109 -90587323 -10425611#1 -10425611#0 -10425611#0.35 4324827#0 203971381#0 203971381#1 4324820 164051399 201956817 33279254#1 556434727 542630099 354967545#0.45 354967545#1 141058765#0 141058765#1 141058765#2 141058765#2.33 103718178 -201278216#1 -201278214#1 -29458645 -29458645.13 -29458645.28 131118468#0 131118468#0.16 131118468#1 131118468#3 131118468#4 305390335 201278218#0 306396705 174321447 58295043 32923863#2 266607804#0 266607804#1 266607804#2 266607803#0 266607803#1 266607803#2 266607792#0 266607792#5 200949176#0 200949176#1 116765451#0 116765451#3 390835794#0 390835794#1 266607799 168249926#0 168249926#1 -207091116#1 25375417#0 25375417#6 25375417#7 25375417#8 25375417#9 25375417#10 25375417#11 25375417#12 -25375814#1 233673410#6 266607801#0 266607801#1 266607802#0 266607802#1 266607795#0 266607795#1 266607795#6 266607800#0 201243226#0 266607805#0 266607805#1 41494424#0 233673422#0 233673422#2 233673422#4 233673422#5 233673422#7 233673422#9" probability="0.14756856"/>
            <route cost="789.70" edges="25597196#2 25597196#3 -25380714#1 -201926266 -90587320 -37480109 -90587323 -10425611#1 -10425611#0 -10425611#0.35 4324827#0 203971381#0 203971381#1 4324820 164051399 201956817 33279254#1 556434727 542630099 354967545#0.45 354967545#1 141058765#0 141058765#1 141058765#2 141058765#2.33 31624236#0 172700927#0 -48742425#2 -48742425#1 -48742425#0 -205182378#15 -205182378#14 -205182378#13 -205182378#12 -205182378#11 -205182378#9 -205182378#7 -205182378#6 -205182378#5 -205182378#4 -205182378#3 -205182378#2 -205182378#0 -32530108#5 -32530108#2 -32530108#1 -390842192#4 -390842192#3 -390842192#1 -141058755#4 -141058755#1 -141058755#0 -51262567#1 22603944#0 22603945#0 22603945#1.135 22603945#1.145 55600044#0 55600044#1 55600044#2 61671904 -51872706 -51872707 -28124854#0 -51872703 -32881185#1 41494424#0 233673422#0 233673422#2 233673422#4 233673422#5 233673422#7 233673422#9" probability="0.13719771"/>
            <route cost="772.27" edges="25597196#2 25597196#3 -25380714#1 -201926266 -90587320 -37480109 -90587323 -10425611#1 -10425611#0 -10425611#0.35 4324827#0 203971381#0 203971381#1 4324820 164051399 201956817 33279254#1 556434727 542630099 354967545#0.45 354967545#1 -25188983#1 -25188983#0 -354967514#2 -168243629#2 -168243629#1 141058765#2 141058765#2.33 103718178 -201278216#1 -201278214#1 -29458645 -29458645.13 -29458645.28 131118468#0 131118468#0.16 131118468#1 131118468#3 131118468#4 305390335 201278218#0 306396705 174321447 58295043 32923863#2 266607804#0 266607804#1 266607804#2 266607803#0 266607803#1 266607803#2 266607792#0 266607792#5 200949176#0 200949176#1 116765451#0 116765451#3 -39444740#6 -201078448#1 -10597455#2 201078447#0 201078447#3 39444748#0 39444748#1 39444748#4 39444748#5 39444748#8 201243230#0 201243230#1 233673410#0 233673410#1 233673410#5 233673410#6 266607801#0 266607801#1 266607802#0 266607802#1 266607795#0 266607795#1 266607795#6 266607800#0 201243226#0 266607805#0 266607805#1 41494424#0 233673422#0 233673422#2 233673422#4 233673422#5 233673422#7 233673422#9" probability="0.12950976"/>
        </routeDistribution>
    </vehicle>
    <vehicle arrivalPos="4.94" arrivalSpeed="0.00" depart="37638.00" departPos="6.27" id="randUni32844:1" type="random_009">
        <routeDistribution last="0">
            <route cost="598.36" edges="-32200983#6 -32200983#1 24872530#0 24692328 -24692328 -24872530#1 32200983#0 32200983#3 24982688#0 24982688#0.12 24982688#2 29002614 32201042 32201044#0 145069336#0 145069336#1 145069336#2 145069280#0 -145069391 145069286#0 32229741 32229742#1 32229742#3 32229742#4 32229742#5 145069384 -37649447#1 -32202011#1 51856496#8 204388144#0 204388144#1 -33102476 -36689751#2 10425609#0 10425609#1 201956819#0 201956810 173169611#1 173169611#4 173169612 26729232#0 26729232#1 26372056 201956815#0 26372058 26372059#0 26729366#0 26729367#0 26729367#1 26729368 -26729366#1" probability="0.21034795"/>
            <route cost="541.41" edges="-32200983#6 -32200983#1 24872530#0 24692328 -24692328 -24872530#1 32200983#0 32200983#3 -145069366#3 -145069366#2 -28418764#2 -28418764#1 -28418764#0.88 -28418764#0.109 -542617943 -389831364 -102818928#1 -102818928#0 -102818928#0.78 201969576#0 201969576#1 201969576#2 201969576#5 151167738#0 151167738#1 151167738#2 23442105#0 -25076787#1 -25171366#2 -25171366#1 -25171366#0 173169612 26729232#0 26729232#1 26372056 201956815#0 26372058 26372059#0 26729366#0 26729367#0 26729367#1 26729368 -26729366#1" probability="0.24346791"/>
            <route cost="603.41" edges="-32200983#6 -32200983#1 24872530#0 24692328 -24692328 -24872530#1 32200983#0 32200983#3 24982688#0 24982688#0.12 24982688#2 29002614 32201042 32201044#0 145069336#0 145069336#1 145069336#2 145069280#0 -145069391 145069286#0 32229741 32229742#1 32229742#3 32229742#4 32229742#5 145069311#0 145069316#0 145069316#1 145069313#2 -103512667#2 -103512667#1 -103512667#0 103512671 -33102477 -33102476 -36689751#2 10425609#0 10425609#1 201956819#0 201956810 173169611#1 173169611#4 173169612 26729232#0 26729232#1 26372056 201956815#0 26372058 26372059#0 26729366#0 26729367#0 26729367#1 26729368 -26729366#1" probability="0.18389453"/>
            <route cost="611.32" edges="-32200983#6 -32200983#1 24872530#0 24692328 -24692328 -24872530#1 32200983#0 32200983#3 24982688#0 24982688#0.12 24982688#2 29002614 32201042 32201044#0 145069336#0 145069336#1 145069336#2 145069280#0 145069369#0 145069371#0 145069371#1 32229742#1 32229742#3 32229742#4 32229742#5 145069311#0 145069316#0 145069316#1 145069313#2 -103512667#2 -103512667#1 -103512667#0 103512671 -33102477 -33102476 -36689751#2 10425609#0 10425609#1 201956819#0 201956810 173169611#1 173169611#4 173169612 26729232#0 26729232#1 26372056 201956815#0 26372058 26372059#0 26729366#0 26729367#0 26729367#1 26729368 -26729366#1" probability="0.15351038"/>
            <route cost="540.87" edges="-32200983#6 -32200983#1 24872530#0 24692328 -24692328 -24872530#1 32200983#0 32200983#3 -145069366#3 -145069366#2 -28418764#2 -28418764#1 -28418764#0.88 -28418764#0.109 -542617943 -389831364 -102818928#1 -102818928#0 -102818928#0.78 201969576#0 201969576#1 201969576#2 201969576#5 201969576#6 201969576#7 29497467 124812856#0 124812856#1 201956810 173169611#1 173169611#4 173169612 26729232#0 26729232#1 26372056 201956815#0 26372058 26372059#0 26729366#0 26729367#0 26729367#1 26729368 -26729366#1" probability="0.20877923"/>
        </routeDistribution>
    </vehicle>
    <vehicle arrivalPos="10.86" arrivalSpeed="0.00" depart="37640.00" departPos="12.25" id="randUni9283:1" type="random_009">
        <routeDistribution last="2">
            <route cost="750.85" edges="-148050447#1 -148050453#3 -148050453#1 -266565295#0 -266565299 -24977590#1 -24977590#0 -380273343 -266565302 -24537982#4 -24537982#3 -24537982#2 -24537982#1 29048562#0 145069303#0 145069303#1 145069303#2 145069303#4 -26973015 24983010#0 24983010#1 161678033#0 -32350852#4 -32350852#3 -32350852#1 -28418764#2 -28418764#1 -28418764#0.88 -28418764#0.109 32225921 32124561#1 32124561#3 32124561#4 233673423 28418763 -379723624#1 -379723624#0 -32923867#4 -32923867#3 -32923867#2 -32923867#1 -32923867#0 130996520 130996520.58 172519650 306396705 -33779209#2 gneE19 -174609517#3 -33814393#3 -33814393#1 -33814393#0 -391208988 -40623117#2 -51244813#8 -51244813#7 -51244813#6 -51244813#5 -51244813#5.55 -51244813#3 -51244813#0 -26341775#7 -26341775#6 -26341775#5 -26341775#3 -26341775#1 -26341775#0 -26341775#0.81 -174596151#7 -174596151#6 -174596151#5 -174596151#4 -174596151#3 -174596151#2 -174596151#1 -10427552 26288509#0 26288509#2 26288509#3 26288509#4 26288509#5 26334871" probability="0.24092837"/>
            <route cost="743.75" edges="-148050447#1 -148050453#3 -148050453#1 266565295#1 266565295#2 266565295#3 266565295#4 266565295#5 32999435 32124637#0 32124637#1 51857518#1 32978638#0 32978638#1 -389840420#4 -389840420#2 -32061928#4 -32061928#3 -32061928#1 -18909061#1 -204388144#1 -204388144#0 -137685135 -51856496#7 -51856496#5 -51856496#4 -51856496#3 -51856496#2 -51856496#1 -51856496#0 -390282481 -156923526#3 -156923526#2 -10425610#2 -102818928#1 -102818928#0 -102818928#0.78 -61940355 -24495188 -29458641 -61940356 29458640#0 172517196 -38508400#1 -174609517#3 -33814393#3 -33814393#1 -33814393#0 -391208988 -40623117#2 -51244813#8 -51244813#7 -51244813#6 -51244813#5 -51244813#5.55 -51244813#3 -51244813#0 -26341775#7 -26341775#6 -26341775#5 -26341775#3 -26341775#1 -26341775#0 -26341775#0.81 -174596151#7 -174596151#6 -174596151#5 -174596151#4 -174596151#3 -174596151#2 -174596151#1 -10427552 26288509#0 26288509#2 26288509#3 26288509#4 26288509#5 26334871" probability="0.24572130"/>
            <route cost="852.23" edges="-148050447#1 -148050447#0 -306431310#0 -148050448#0 266565295#2 266565295#3 266565295#4 266565295#5 32999435 32124637#0 32124637#1 51857518#1 32978638#0 32978638#1 29458097#0 51856495#0 29458096 108239938 104236369 145069323#0 32230349#0 145069347#0 103512671 -33102477 -33102476 -36689751#2 10425609#0 10425609#1 201956819#0 201956820 -29497467 -201969576#7 -201969576#6 -201969576#5 -201969576#4 -201969576#1 -201969576#0 -61940355 -24495188 -29458641 -61940356 29458640#0 172517196 -38508400#1 -174609517#3 -33814393#3 -33814393#1 -33814393#0 -391208988 -40623117#2 -51244813#8 -51244813#7 -51244813#6 -51244813#5 -51244813#5.55 -51244813#3 -51244813#0 -26341775#7 -26341775#6 -26341775#5 -26341775#3 -26341775#1 -26341775#0 -26341775#0.81 -174596151#7 -174596151#6 -174596151#5 -174596151#4 -174596151#3 -174596151#2 -174596151#1 -10427552 26288509#0 26288509#2 26288509#3 26288509#4 26288509#5 26334871" probability="0.17036606"/>
            <route cost="736.84" edges="-148050447#1 -148050447#0 -306431310#0 -148050448#0 266565295#2 266565295#3 266565295#4 266565295#5 32999435 32124637#0 32124637#1 51857518#1 32978638#0 32978638#1 -389840420#4 -389840420#2 -32061928#4 -32061928#3 -32061928#1 -18909061#1 -204388144#1 -204388144#0 -137685135 -51856496#7 -51856496#5 -51856496#4 -51856496#3 -51856496#2 -51856496#1 -51856496#0 -390282481 -156923526#3 -156923526#2 -10425610#2 -102818928#1 -102818928#0 -102818928#0.78 -61940355 -24495188 -29458641 -61940356 29458640#0 172517196 -38508400#1 -174609517#3 -33814393#3 -33814393#1 -33814393#0 -391208988 -40623117#2 -51244813#8 -51244813#7 -51244813#6 -51244813#5 -51244813#5.55 -51244813#3 -51244813#0 -26341775#7 -26341775#6 -26341775#5 -26341775#3 -26341775#1 -26341775#0 -26341775#0.81 -174596151#7 -174596151#6 -174596151#5 -174596151#4 -174596151#3 -174596151#2 -174596151#1 -10427552 26288509#0 26288509#2 26288509#3 26288509#4 26288509#5 26334871" probability="0.21310814"/>