<routes >
    <vType color="red" id="default_001" vClass="passenger"/>
    <vType color="blue" id="random_001" vClass="passenger"/>
    <vType color="blue" id="random" vClass="passenger"/>
    <vehicle arrivalPos="0.00" arrivalSpeed="0.00" depart="0.00" departPos="99.24" id="h792c1:1" type="default_001">
        <routeDistribution last="3">
            <route cost="100512.51" edges="32259258 29027840 77912237 32200414#0 29027839#0 29027839#2 31343367#0 29048562#0 11014139#0 24991573 24991571 64464405 266567306 64464408 64464384#1 32009827 266567303 266567294#0 31342064#1 31342064#1.83 305495773#0 266507551 266507552#0 31021475 202070430 202070429#0 202070429#1 202070429#2 202070429#3 202070429#4 202070429#5 202070429#6 202070429#7 201789794#0 201789794#3 308849647 266507550 30320943 378466167 266507548 32976755 327975020 327975024 327975024.20 327975024.51 327975019 146973189 195073416 195073418#0 195073418#1 266507539 27392718 27392719 266507541 266507544 266507534 39697946.985 39697946.1000" probability="0.03892745"/>
            <route cost="100500.85" edges="32259258 29027840 77912237 32200414#0 29027839#0 29027839#2 31343367#0 24537982#0 24537982#2 24537982#3 24537982#4 266565302 380273343 -233673425#1 -233673425#0 -266567307#1 -30404124 30417892 266567308#0 64464384#1 32009827 266567303 24971737#0 24971737#3 -32199989#1 -32199989#0 -32199969#5 -32199969#4 23009002#0 24978651 115082348#0 115082348#1 115082348#3 115082348#4 257907858#0 31021475 202070430 202070429#0 202070429#1 202070429#2 202070429#3 202070429#4 202070429#5 202070429#6 202070429#7 201789794#0 201789794#3 308849647 266507550 30320943 378466167 266507548 32976755 327975020 327975024 327975024.20 327975024.51 327975019 146973189 195073416 195073418#0 195073418#1 266507539 27392718 27392719 266507541 266507544 266507534 39697946.985 39697946.1000" probability="0.03017579"/>
            <route cost="100444.88" edges="32259258 29027840 77912237 32200414#0 29027839#0 29027839#2 31343367#0 29048562#0 145069303#0 145069303#1 145069303#2 145069303#4 -26973015 24983010#0 24983010#1 161678033#0 51857519#0 161678034#0 161678034#1 161678034#2 161678034#2.30 161678034#2.46 164051429#0 164051429#1 10425611#0 10425611#0.83 10425611#1 203971380 37480109 90587320 90587320.64 201926266 30482638#0 30482638#3 30482638#4 30482638#9 30482638#10 30482638#11 30482638#12 201789799#0 201789799#1 201789799#2 201789798#0 201789798#1 202070435#0 10941820 201880159#0 201880159#1 201880159#2 201789796#0.31 201789796#1 30320943 378466167 266507548 32976755 327975020 327975024 327975024.20 327975024.51 327975019 146973189 195073416 195073418#0 195073418#1 266507539 27392718 27392719 266507541 266507544 266507534 39697946.985 39697946.1000" probability="0.02722474"/>
            <route cost="100509.14" edges="32259258 29027840 77912237 32200414#0 29027839#0 29027839#2 31343367#0 29048562#0 11014139#0 24991573 24991571 64464405 266567306 64464408 64464384#1 32009827 266567303 24971737#0 24971737#3 -32199989#1 -32199989#0 -32199969#5 -32199969#4 -32199969#1 -164051410#1 24989879 25597196#0 25597196#2 25597196#3 25597196#4 25597196#5 25597196#6 25597196#7 25597196#10 25597196#12 201789797#1 gneE143 25596993#0 25596993#5 149045845 -149045266 201789796#1 30320943 378466167 266507548 32976755 327975020 327975024 327975024.20 327975024.51 327975019 146973189 195073416 195073418#0 195073418#1 266507539 27392718 27392719 266507541 266507544 266507534 39697946.985 39697946.1000" probability="0.90367202"/>
        </routeDistribution>
    </vehicle>
    <vehicle arrivalPos="230.00" arrivalSpeed="0.00" depart="0.00" departPos="202.35" id="h2005c2:1" type="default_001">
        <routeDistribution last="3">
            <route cost="770.39" edges="-136728347#4 -26642362#5 -26642362#3 -26642362#2 -25145014#4 -25145014#3 -25209894#1 25145012#0 25145012#1 25145012#2 25145012#3 25145012#4 22716069#2 653473569#2 653473569#3 653473569#5 164051413 124812857#0 201956819#0 201956820 -29497467 -201969576#7 -201969576#6 -201969576#5 -201969576#4 -201969576#1 -201969576#0 -61940355 -24495188 -29458641 -61940356 29458640#0 172517198#0 306396705 174321447 58295043 32923863#2 266607804#0 266607804#1 266607804#2 266607803#0 266607803#1 266607803#2 266607792#0 266607792#5 200949176#0 200949176#1 116765451#0 116765451#3 390835794#0 390835794#1 266607799 26339624#0 26339624#2 26339623#5 71809618#4 25375417#0 25375417#6 25375417#7 25375417#8 25375417#9 25375417#10 25375417#11 25375417#12 -25375814#1 233673410#6 266607801#0 266607801#1 266607802#0 266607802#1 266607795#0 266607795#1 266607795#6 266607800#0 201243226#0 266607805#0 266607805#1 41494424#0 233673422#0 233673422#2 233673422#4 233673422#5 233673422#7 233673422#9" probability="0.20384809"/>
            <route cost="772.44" edges="-136728347#4 -26642362#5 -26642362#3 -26642362#2 -25145014#4 -25145014#3 -25209894#1 25145012#0 25145012#1 25145012#2 25145012#3 25145012#4 22716069#2 653473569#2 653473569#3 653473569#5 164051413 124812857#0 201956819#0 201956820 -29497467 -201969576#7 -201969576#6 -201969576#5 -201969576#4 -201969576#1 -201969576#0 -61940355 -24495188 -29458641 -61940356 29458640#0 172517196 -38508400#1 gneE20 33779209#1 174321447 58295043 32923863#2 266607804#0 266607804#1 266607804#2 266607803#0 266607803#1 266607803#2 266607792#0 266607792#5 200949176#0 200949176#1 116765451#0 116765451#3 390835794#0 390835794#1 266607799 26339624#0 26339624#2 26339623#5 71809618#4 25375417#0 25375417#6 25375417#7 25375417#8 25375417#9 25375417#10 25375417#11 25375417#12 -25375814#1 233673410#6 266607801#0 266607801#1 266607802#0 266607802#1 266607795#0 266607795#1 266607795#6 266607800#0 201243226#0 266607805#0 266607805#1 41494424#0 233673422#0 233673422#2 233673422#4 233673422#5 233673422#7 233673422#9" probability="0.20257830"/>
            <route cost="763.93" edges="-136728347#4 -26642362#5 -26642362#3 -26642362#2 -25145014#4 -25145014#3 -25209894#1 25145012#0 25145012#1 25145012#2 25145012#3 25145012#4 22716069#2 653473569#2 653473569#3 653473569#5 164051413 124812857#0 201956819#0 201956820 -29497467 -201969576#7 -201969576#6 -201969576#5 -201969576#4 -201969576#1 -201969576#0 -61940355 -24495188 -29458641 -61940356 29458640#0 172517196 -38508400#1 -174609517#3 -33814393#3 -33814393#1 -33814393#0 -23184274#3 -23184274#1 -23184274#0 266607803#0 266607803#1 266607803#2 266607792#0 266607792#5 200949176#0 200949176#1 116765451#0 116765451#3 390835794#0 390835794#1 266607799 26339624#0 26339624#2 26339623#5 71809618#4 25375417#0 25375417#6 25375417#7 25375417#8 25375417#9 25375417#10 25375417#11 25375417#12 -25375814#1 233673410#6 266607801#0 266607801#1 266607802#0 266607802#1 266607795#0 266607795#1 266607795#6 266607800#0 201243226#0 266607805#0 266607805#1 41494424#0 233673422#0 233673422#2 233673422#4 233673422#5 233673422#7 233673422#9" probability="0.20180152"/>
            <route cost="774.72" edges="-136728347#4 -26642362#5 -26642362#3 -26642362#2 -25145014#4 -25145014#3 -25209894#1 25145012#0 25145012#1 25145012#2 25145012#3 25145012#4 22716069#2 653473569#2 653473569#3 653473569#5 164051413 124812857#0 201956819#0 201956820 -29497467 -201969576#7 -201969576#6 -201969576#5 -201969576#4 -201969576#1 -201969576#0 -61940355 -24495188 -29458641 -61940356 29458640#0 172517196 -38508400#1 gneE20 33779209#1 174321447 58295043 32923863#2 266607804#0 266607804#1 266607804#2 266607803#0 266607803#1 266607803#2 266607792#0 266607792#5 200949176#0 200949176#1 116765451#0 116765451#3 390835794#0 390835794#1 266607799 168249926#0 168249926#1 -207091116#1 25375417#0 25375417#6 25375417#7 25375417#8 25375417#9 25375417#10 25375417#11 25375417#12 -25375814#1 233673410#6 266607801#0 266607801#1 266607802#0 266607802#1 266607795#0 266607795#1 266607795#6 266607800#0 201243226#0 266607805#0 266607805#1 41494424#0 233673422#0 233673422#2 233673422#4 233673422#5 233673422#7 233673422#9" probability="0.19609358"/>
            <route cost="803.61" edges="-136728347#4 -26642362#5 -26642362#3 -26642362#2 -25145014#4 -25145014#3 -25209894#1 25145012#0 25145012#1 25145012#2 25145012#3 25145012#4 22716069#2 653473569#2 653473569#3 653473569#5 164051413 124812857#0 201956819#0 201956820 -29497467 -201969576#7 -201969576#6 -201969576#5 -201969576#4 -201969576#1 -201969576#0 -61940355 -24495188 -29458641 -61940356 29458640#0 172517198#0 306396705 174321447 58295043 32923863#2 266607804#0 266607804#1 266607804#2 266607803#0 266607803#1 266607803#2 266607792#0 266607792#5 200949176#0 200949176#1 116765451#0 116765451#3 390835794#0 390835794#1 266607799 168249926#0 168249926#1 29027936#0 29027936#1 233673413#0 233673413#1 207091130 207091132#0 207091132#1 207091132#2 207091132#3 207091132#4 266607796 266607798 233673420#0 233673420#1 201243230#0 201243230#1 233673410#0 233673410#1 233673410#5 233673410#6 266607801#0 266607801#1 266607802#0 266607802#1 266607795#0 266607795#1 266607795#6 266607800#0 201243226#0 266607805#0 266607805#1 41494424#0 233673422#0 233673422#2 233673422#4 233673422#5 233673422#7 233673422#9" probability="0.19567852"/>
        </routeDistribution>
    </vehicle>
    <vehicle arrivalPos="0.00" arrivalSpeed="0.00" depart="0.00" departPos="233.85" id="h2008c2:1" type="default_001">
        <routeDistribution last="0">
            <route cost="100589.90" edges="-136728347#4 -26642362#5 -26642362#3 -26642362#2 -25145014#4 -25145014#3 -25145014#2 -25145014#1 -25145014#0 22716069#1 22716069#2 653473569#2 653473569#3 653473569#5 164051413 124812857#0 201956811#0 36689751#0 33102476 173148224#1 -137685135 -51856496#7 -51856496#5 -51856496#4 -51856496#3 -51856496#2 -51856496#1 -51856496#0 -390282481 -156923526#3 -156923526#2 -10425610#2 389831364 542617943 28418764#0 28418764#0.126 28418764#0.141 28418764#2 32350852#0 32350852#3 32350852#4 51857519#0 161678034#0 161678034#1 161678034#2 161678034#2.30 161678034#2.46 164051429#0 164051429#1 10425611#0 10425611#0.83 10425611#1 203971380 37480109 90587320 90587320.64 201926266 30482638#0 30482638#3 30482638#4 30482638#9 30482638#10 30482638#11 30482638#12 201789799#0 201789799#1 201789799#2 201789798#0 201789798#1 202070435#0 10941820 201880159#0 201880159#1 201880159#2 201789796#0.31 201789796#1 30320943 378466167 266507548 32976755 327975020 327975024 327975024.20 327975024.51 327975019 28132017 32976751 32976751.35 306793670#0 306793670#1" probability="0.20012033"/>
            <route cost="100589.14" edges="-136728347#4 -26642362#5 -26642362#3 -26642362#2 -25145014#4 -25145014#3 -25209894#1 25145012#0 25145012#1 25145012#2 25145012#3 25145012#4 22716069#2 653473569#2 653473569#3 653473569#5 164051413 124812857#0 201956811#0 36689751#0 33102476 173148224#1 -137685135 -51856496#7 -51856496#5 -51856496#4 -51856496#3 -51856496#2 -51856496#1 -51856496#0 -390282481 -156923526#3 -156923526#2 -10425610#2 389831364 542617943 28418764#0 28418764#0.126 28418764#0.141 28418764#2 32350852#0 32350852#3 32350852#4 51857519#0 161678034#0 161678034#1 161678034#2 161678034#2.30 161678034#2.46 164051429#0 164051429#1 10425611#0 10425611#0.83 10425611#1 203971380 37480109 90587320 90587320.64 201926266 30482638#0 30482638#3 30482638#4 30482638#9 30482638#10 30482638#11 30482638#12 201789799#0 201789799#1 201789799#2 201789798#0 201789798#1 202070435#0 10941820 201880159#0 201880159#1 201880159#2 201789796#0.31 201789796#1 30320943 378466167 266507548 32976755 327975020 327975024 327975024.20 327975024.51 327975019 28132017 32976751 32976751.35 306793670#0 306793670#1" probability="0.20011464"/>
            <route cost="100598.43" edges="-136728347#4 -26642362#5 -26642362#3 -26642362#2 -25145014#4 -25145014#3 -25209894#1 25145012#0 25145012#1 25145012#2 25145012#3 25145012#4 25145012#5 25145012#6 25145012#7 104010354 124812857#0 201956811#0 36689751#0 33102476 173148224#1 -137685135 -51856496#7 -51856496#5 -51856496#4 -51856496#3 -51856496#2 -51856496#1 -51856496#0 -390282481 -156923526#3 -156923526#2 -10425610#2 389831364 542617943 28418764#0 28418764#0.126 28418764#0.141 28418764#2 32350852#0 32350852#3 32350852#4 51857519#0 161678034#0 161678034#1 161678034#2 161678034#2.30 161678034#2.46 164051429#0 164051429#1 10425611#0 10425611#0.83 10425611#1 203971380 37480109 90587320 90587320.64 201926266 30482638#0 30482638#3 30482638#4 30482638#9 30482638#10 30482638#11 30482638#12 201789799#0 201789799#1 201789799#2 201789798#0 201789798#1 202070435#0 10941820 201880159#0 201880159#1 201880159#2 201789796#0.31 201789796#1 30320943 378466167 266507548 32976755 327975020 327975024 327975024.20 327975024.51 327975019 28132017 32976751 32976751.35 306793670#0 306793670#1" probability="0.19996581"/>
            <route cost="100595.33" edges="-136728347#4 -26642362#5 -26642362#3 -26642362#2 -25145014#4 -25145014#3 -25209894#1 25145012#0 25145012#1 25145012#2 25145012#3 25145012#4 25145012#5 25145012#6 -25145013#0 653473569#5 164051413 124812857#0 201956811#0 36689751#0 33102476 173148224#1 -137685135 -51856496#7 -51856496#5 -51856496#4 -51856496#3 -51856496#2 -51856496#1 -51856496#0 -390282481 -156923526#3 -156923526#2 -10425610#2 389831364 542617943 28418764#0 28418764#0.126 28418764#0.141 28418764#2 32350852#0 32350852#3 32350852#4 51857519#0 161678034#0 161678034#1 161678034#2 161678034#2.30 161678034#2.46 164051429#0 164051429#1 10425611#0 10425611#0.83 10425611#1 203971380 37480109 90587320 90587320.64 201926266 30482638#0 30482638#3 30482638#4 30482638#9 30482638#10 30482638#11 30482638#12 201789799#0 201789799#1 201789799#2 201789798#0 201789798#1 202070435#0 10941820 201880159#0 201880159#1 201880159#2 201789796#0.31 201789796#1 30320943 378466167 266507548 32976755 327975020 327975024 327975024.20 327975024.51 327975019 28132017 32976751 32976751.35 306793670#0 306793670#1" probability="0.19992182"/>
            <route cost="100594.54" edges="-136728347#4 -26642362#5 -26642362#3 -26642362#2 -25145014#4 -25145014#3 -25145014#2 -25145014#1 25187889 25145012#3 25145012#4 25145012#5 -25145011#0 653473569#3 653473569#5 164051413 124812857#0 201956811#0 36689751#0 33102476 173148224#1 -137685135 -51856496#7 -51856496#5 -51856496#4 -51856496#3 -51856496#2 -51856496#1 -51856496#0 -390282481 -156923526#3 -156923526#2 -10425610#2 389831364 542617943 28418764#0 28418764#0.126 28418764#0.141 28418764#2 32350852#0 32350852#3 32350852#4 51857519#0 161678034#0 161678034#1 161678034#2 161678034#2.30 161678034#2.46 164051429#0 164051429#1 10425611#0 10425611#0.83 10425611#1 203971380 37480109 90587320 90587320.64 201926266 30482638#0 30482638#3 30482638#4 30482638#9 30482638#10 30482638#11 30482638#12 201789799#0 201789799#1 201789799#2 201789798#0 201789798#1 202070435#0 10941820 201880159#0 201880159#1 201880159#2 201789796#0.31 201789796#1 30320943 378466167 266507548 32976755 327975020 327975024 327975024.20 327975024.51 327975019 28132017 32976751 32976751.35 306793670#0 306793670#1" probability="0.19987740"/>
        </routeDistribution>
    </vehicle>
    <vehicle arrivalPos="0.00" arrivalSpeed="0.00" depart="0.00" departPos="48.90" id="h2090c2:1" type="default_001">
        <routeDistribution last="2">
            <route cost="100637.15" edges="-218647954 -24634521#0 -24634517#8 -24634517#7 -24634517#5 -24634517#3 201963533#4 201963533#5 128906555 233675413#0 233675413#1 22716069#0 22716069#1 22716069#2 653473569#2 653473569#3 653473569#5 164051413 124812857#0 201956811#0 36689751#0 33102476 173148224#1 -137685135 -51856496#7 -51856496#5 -51856496#4 -51856496#3 -51856496#2 -51856496#1 -51856496#0 -390282481 -156923526#3 -156923526#2 -10425610#2 389831364 542617943 28418764#0 28418764#0.126 28418764#0.141 28418764#2 32350852#0 32350852#3 32350852#4 51857519#0 161678034#0 161678034#1 161678034#2 161678034#2.30 161678034#2.46 164051429#0 164051429#1 10425611#0 10425611#0.83 10425611#1 203971380 37480109 90587320 90587320.64 201926266 30482638#0 30482638#3 30482638#4 30482638#9 30482638#10 30482638#11 30482638#12 201789799#0 201789799#1 201789799#2 201789798#0 201789798#1 202070435#0 10941820 201880159#0 201880159#1 201880159#2 201789796#0.31 201789796#1 30320943 378466167 266507548 32976755 327975020 327975024 327975024.20 327975024.51 327975019 28132017 32976751 32976751.35 306793670#0 306793670#1" probability="0.20023001"/>
            <route cost="100645.20" edges="-218647954 -24634521#0 -24634517#8 -24634517#7 -24634517#5 -24634517#3 201963533#4 201963533#5 128906555 233675413#0 233675413#1 233675413#2 233675413#3 233675413#4 233675413#7 -25145013#1 -25145013#0 653473569#5 164051413 124812857#0 201956811#0 36689751#0 33102476 173148224#1 -137685135 -51856496#7 -51856496#5 -51856496#4 -51856496#3 -51856496#2 -51856496#1 -51856496#0 -390282481 -156923526#3 -156923526#2 -10425610#2 389831364 542617943 28418764#0 28418764#0.126 28418764#0.141 28418764#2 32350852#0 32350852#3 32350852#4 51857519#0 161678034#0 161678034#1 161678034#2 161678034#2.30 161678034#2.46 164051429#0 164051429#1 10425611#0 10425611#0.83 10425611#1 203971380 37480109 90587320 90587320.64 201926266 30482638#0 30482638#3 30482638#4 30482638#9 30482638#10 30482638#11 30482638#12 201789799#0 201789799#1 201789799#2 201789798#0 201789798#1 202070435#0 10941820 201880159#0 201880159#1 201880159#2 201789796#0.31 201789796#1 30320943 378466167 266507548 32976755 327975020 327975024 327975024.20 327975024.51 327975019 28132017 32976751 32976751.35 306793670#0 306793670#1" probability="0.19997464"/>
            <route cost="100643.37" edges="-218647954 -24634521#0 -24634517#8 -24634517#7 -24634517#5 -24634517#3 201963533#4 201963533#5 128906555 233675413#0 233675413#1 22716069#0 22716069#1 25145012#5 25145012#6 -25145013#0 653473569#5 164051413 124812857#0 201956811#0 36689751#0 33102476 173148224#1 -137685135 -51856496#7 -51856496#5 -51856496#4 -51856496#3 -51856496#2 -51856496#1 -51856496#0 -390282481 -156923526#3 -156923526#2 -10425610#2 389831364 542617943 28418764#0 28418764#0.126 28418764#0.141 28418764#2 32350852#0 32350852#3 32350852#4 51857519#0 161678034#0 161678034#1 161678034#2 161678034#2.30 161678034#2.46 164051429#0 164051429#1 10425611#0 10425611#0.83 10425611#1 203971380 37480109 90587320 90587320.64 201926266 30482638#0 30482638#3 30482638#4 30482638#9 30482638#10 30482638#11 30482638#12 201789799#0 201789799#1 201789799#2 201789798#0 201789798#1 202070435#0 10941820 201880159#0 201880159#1 201880159#2 201789796#0.31 201789796#1 30320943 378466167 266507548 32976755 327975020 327975024 327975024.20 327975024.51 327975019 28132017 32976751 32976751.35 306793670#0 306793670#1" probability="0.19998680"/>
            <route cost="100646.36" edges="-218647954 -24634521#0 -24634517#8 -24634517#7 -24634517#5 -24634517#3 201963533#4 201963533#5 128906555 -25187891 -25145014#1 25187889 25145012#3 25145012#4 25145012#5 -25145011#0 653473569#3 653473569#5 164051413 124812857#0 201956811#0 36689751#0 33102476 173148224#1 -137685135 -51856496#7 -51856496#5 -51856496#4 -51856496#3 -51856496#2 -51856496#1 -51856496#0 -390282481 -156923526#3 -156923526#2 -10425610#2 389831364 542617943 28418764#0 28418764#0.126 28418764#0.141 28418764#2 32350852#0 32350852#3 32350852#4 51857519#0 161678034#0 161678034#1 161678034#2 161678034#2.30 161678034#2.46 164051429#0 164051429#1 10425611#0 10425611#0.83 10425611#1 203971380 37480109 90587320 90587320.64 201926266 30482638#0 30482638#3 30482638#4 30482638#9 30482638#10 30482638#11 30482638#12 201789799#0 201789799#1 201789799#2 201789798#0 201789798#1 202070435#0 10941820 201880159#0 201880159#1 201880159#2 201789796#0.31 201789796#1 30320943 378466167 266507548 32976755 327975020 327975024 327975024.20 327975024.51 327975019 28132017 32976751 32976751.35 306793670#0 306793670#1" probability="0.19994622"/>
            <route cost="100647.31" edges="-218647954 -24634521#0 -24634517#8 -24634517#7 -24634517#5 -24634517#3 201963533#4 201963533#5 128906555 233675413#0 233675413#1 22716069#0 22716069#1 25145012#5 25145012#6 25145012#7 104010354 124812857#0 201956811#0 36689751#0 33102476 173148224#1 -137685135 -51856496#7 -51856496#5 -51856496#4 -51856496#3 -51856496#2 -51856496#1 -51856496#0 -390282481 -156923526#3 -156923526#2 -10425610#2 389831364 542617943 28418764#0 28418764#0.126 28418764#0.141 28418764#2 32350852#0 32350852#3 32350852#4 51857519#0 161678034#0 161678034#1 161678034#2 161678034#2.30 161678034#2.46 164051429#0 164051429#1 10425611#0 10425611#0.83 10425611#1 203971380 37480109 90587320 90587320.64 201926266 30482638#0 30482638#3 30482638#4 30482638#9 30482638#10 30482638#11 30482638#12 201789799#0 201789799#1 201789799#2 201789798#0 201789798#1 202070435#0 10941820 201880159#0 201880159#1 201880159#2 201789796#0.31 201789796#1 30320943 378466167 266507548 32976755 327975020 327975024 327975024.20 327975024.51 327975019 28132017 32976751 32976751.35 306793670#0 306793670#1" probability="0.19986233"/>
        </routeDistribution>
    </vehicle>
    <vehicle arrivalPos="200.00" arrivalSpeed="0.00" depart="0.00" departPos="238.95" id="h8487c2:1" type="default_001">
        <routeDistribution last="2">
            <route cost="392.83" edges="176550249#4 174800513 201201953#0 201201953#2 201201953#4 201201953#10 201201953#12 176550246 201238729#1 201238729#2 201238729#3 201238729#5 201238729#6 138002148 128361091 379795371 378946906 128361098 -35926528#2 -35926528#1 -130185488#3 -130185488#2 -130185488#0 -136728344#5 -136728344#4 -136728344#3 -136728344#2 -136728344#0 -266561177#1 -266561177#0 -27830333#1 -27830333#0 -266561174#1 -391606911#4 -391606911#3 -391606911#2 -391606911#1 -391606911#0 -325180705#3" probability="0.26259592"/>
            <route cost="403.42" edges="176550249#4 174800513 201201953#0 201201953#2 201201953#4 201201953#10 201201953#12 176550246 201238729#1 201238729#2 201238729#3 201238729#5 201238729#6 138002148 128361091 379795371 378946906 128361098 -35926528#2 -35926528#1 -130185488#3 -130185488#2 -130185488#0 -136728344#5 -136728344#4 -136728344#3 -136728344#2 -136728344#0 -23623717 -393420116#2 -266561174#1 -391606911#4 -391606911#3 -391606911#2 -391606911#1 -391606911#0 -325180705#3" probability="0.20291487"/>
            <route cost="403.10" edges="176550249#4 -201238718#2 -201238718#1 -201238724 24634510#0 24634510#1 24634510#6 24634510#7 24634510#9 24634510#16 201238726#0 201238726#0.117 201238726#1 201238729#1 201238729#2 201238729#3 201238729#5 201238729#6 138002148 128361091 379795371 378946906 128361098 -35926528#2 -35926528#1 -130185488#3 -130185488#2 -130185488#0 -136728344#5 -136728344#4 -136728344#3 -136728344#2 -136728344#0 -266561177#1 -266561177#0 -27830333#1 -27830333#0 -266561174#1 -391606911#4 -391606911#3 -391606911#2 -391606911#1 -391606911#0 -325180705#3" probability="0.19982681"/>
            <route cost="414.37" edges="176550249#4 -201238718#2 -201238718#1 -201238724 24634510#0 24634510#1 24634510#6 24634510#7 24634510#9 24634510#16 -10427692#8 -10427692#7 -10427692#6 -10427692#5 -10427692#4 -10427692#3 -10427692#2 -10427692#1 -285549250#1 -128361102#1 128361107#0 128361107#1 449057056 378946908 128361091 379795371 378946906 128361098 -35926528#2 -35926528#1 -130185488#3 -130185488#2 -130185488#0 -136728344#5 -136728344#4 -136728344#3 -136728344#2 -136728344#0 -23623717 -393420116#2 -266561174#1 -391606911#4 -391606911#3 -391606911#2 -391606911#1 -391606911#0 -325180705#3" probability="0.14410739"/>
            <route cost="403.77" edges="176550249#4 -201238718#2 -201238718#1 -201238724 24634510#0 24634510#1 24634510#6 24634510#7 24634510#9 24634510#16 -10427692#8 -10427692#7 -10427692#6 -10427692#5 -10427692#4 -10427692#3 -10427692#2 -10427692#1 -285549250#1 -128361102#1 128361107#0 128361107#1 449057056 378946908 128361091 379795371 378946906 128361098 -35926528#2 -35926528#1 -130185488#3 -130185488#2 -130185488#0 -136728344#5 -136728344#4 -136728344#3 -136728344#2 -136728344#0 -266561177#1 -266561177#0 -27830333#1 -27830333#0 -266561174#1 -391606911#4 -391606911#3 -391606911#2 -391606911#1 -391606911#0 -325180705#3" probability="0.19055500"/>
        </routeDistribution>
    </vehicle>
    <vehicle arrivalPos="0.00" arrivalSpeed="0.00" depart="0.00" departPos="25.29" id="h10148c2:1" type="default_001">
        <routeDistribution last="2">
            <route cost="100383.12" edges="-25797433#2 -25797433#1 -25797433#0 26176222#0 26176222#1 33280103#4 33280103#4.68 391208990 391029009#0 391029009#0.69 391029009#1 391029009#1.157 41425835 41425835.214 41425835.236 151167747 151167747.23 549032836 39704924 39704922 266507540 27392720 27392724 266507546 266507536 27550700 27454737 266507535 32930761 146973160 266885714 266885716 266885719 266885719.121 266885713 221257625.670 221257625.683 221257625.1565 221257625.1575" probability="0.24892596"/>
            <route cost="100326.59" edges="-25797433#2 -25797433#1 25638529 -32202763 gneE147 -71900674#2 -71900674#1 -71900674#0 -33280103#0 33280102#0 26180729 175761129#0 175761129#1 202070429#4 202070429#5 202070429#6 202070429#7 201789794#0 201789794#3 308849647 266507550 30320943 23622426 -195073412#2 -195073412#1 -195073412#0 195073415 266507536 27550700 27454737 266507535 32930761 146973160 266885714 266885716 266885719 266885719.121 266885713 221257625.670 221257625.683 221257625.1565 221257625.1575" probability="0.25012599"/>
            <route cost="100346.66" edges="-25797433#2 -25797315#1 -32202927#1 -32202927#0 -25638527 -25796375#2 -25796375#1 33280102#3 33280102#5 31021475 202070430 202070429#0 202070429#1 202070429#2 202070429#3 202070429#4 202070429#5 202070429#6 202070429#7 201789794#0 201789794#3 308849647 266507550 30320943 23622426 -195073412#2 -195073412#1 -195073412#0 195073415 266507536 27550700 27454737 266507535 32930761 146973160 266885714 266885716 266885719 266885719.121 266885713 221257625.670 221257625.683 221257625.1565 221257625.1575" probability="0.25035013"/>
            <route cost="100336.00" edges="-25797433#2 -25797433#1 25638529 25901702 -25638527 -25796375#2 -25796375#1 33280102#3 33280102#5 31021475 202070430 202070429#0 202070429#1 202070429#2 202070429#3 202070429#4 202070429#5 202070429#6 202070429#7 201789794#0 201789794#3 308849647 266507550 30320943 23622426 -195073412#2 -195073412#1 -195073412#0 195073415 266507536 27550700 27454737 266507535 32930761 146973160 266885714 266885716 266885719 266885719.121 266885713 221257625.670 221257625.683 221257625.1565 221257625.1575" probability="0.25059796"/>
        </routeDistribution>
    </vehicle>
    <vehicle arrivalPos="149.04" arrivalSpeed="0.00" depart="0.00" departPos="207.32" id="h12269c1:1" type="default_001">
        <routeDistribution last="3">
            <route cost="746.42" edges="-261448661 26180727 175761127#15 28132836#3 25573267#0 25573267#1 -202070429#0 151167728 257907859#0 257907859#1 257907860#0 257907860#1.168 25902677#0 137463478#0 137463478#1 137463478#2 137463478#3 29238188#0 29238188#1 29238188#3 152077572#0 152077572#2 152077572#2.79 54858974 542727960 30399316#0 30399316#0.52 30399316#2 51745097#0 51745097#1 4942660 -4942659#1 24537805#0 64442509#0 128070690 306240160#0 306240160#1 128070667#0 128070667#1 128070665#0 128070665#1 542730346#0 542730346#1 192768914 194377108#0 194377108#0.135 194377108#1 30131200#0 30131200#1 30131201#0 30131201#1 192768909#0 202089408#0 202089408#1 198768615#0 128668757" probability="0.20866613"/>
            <route cost="739.67" edges="-261448661 26180727 175761127#15 28132836#3 25573267#0 25573267#1 -202070429#0 151167728 26451152#0 202070427#0 25796375#0 25796375#1 25796375#2 25796388 32202763 -25638529 25895961 -274823622#3 25895966#0 25895966#6 29238188#3 152077572#0 152077572#2 152077572#2.79 54858974 542727960 30399316#0 30399316#0.52 30399316#2 51745097#0 51745097#1 4942660 -4942659#1 24537805#0 64442509#0 128070690 306240160#0 306240160#1 128070667#0 128070667#1 128070665#0 128070665#1 542730346#0 542730346#1 192768914 194377108#0 194377108#0.135 194377108#1 30131200#0 30131200#1 30131201#0 30131201#1 192768909#0 202089408#0 202089408#1 198768615#0 128668757" probability="0.20123158"/>
            <route cost="751.36" edges="-261448661 26180727 -175761127#14 -175761127#13 28132813 -202070429#5 -202070429#4 -202070429#3 -202070429#2 -202070429#1 -202070429#0 151167728 257907859#0 257907859#1 257907860#0 257907860#1.168 305390325#0 25797295#0 201444272#1 201444272#3 29027727#0 29027727#4 29027727#6 29027727#7 29027727#9 152077572#0 152077572#2 152077572#2.79 54858974 542727960 30399316#0 30399316#0.52 30399316#2 51745097#0 51745097#1 4942660 -4942659#1 24537805#0 64442509#0 128070690 306240160#0 306240160#1 128070667#0 128070667#1 128070665#0 128070665#1 542730346#0 542730346#1 192768914 194377108#0 194377108#0.135 194377108#1 30131200#0 30131200#1 30131201#0 30131201#1 192768909#0 202089408#0 202089408#1 198768615#0 128668757" probability="0.19748570"/>
            <route cost="750.40" edges="-261448661 26180727 -175761127#14 -175761127#13 28132813 -202070429#5 -202070429#4 -202070429#3 -202070429#2 -202070429#1 -202070429#0 151167728 257907859#0 257907859#1 257907860#0 257907860#1.168 25902677#0 137463478#0 137463478#1 137463478#2 137463478#3 29238188#0 29238188#1 29238188#3 152077572#0 152077572#2 152077572#2.79 54858974 542727960 30399316#0 30399316#0.52 30399316#2 51745097#0 51745097#1 4942660 -4942659#1 24537805#0 64442509#0 128070690 306240160#0 306240160#1 128070667#0 128070667#1 128070665#0 128070665#1 542730346#0 542730346#1 192768914 194377108#0 194377108#0.135 194377108#1 30131200#0 30131200#1 30131201#0 30131201#1 192768909#0 202089408#0 202089408#1 198768615#0 128668757" probability="0.19654086"/>