<routes >
    <vType color="red" id="default_011" vClass="passenger"/>
    <vType color="blue" id="random_011" vClass="passenger"/>
    <vehicle arrivalPos="0.00" arrivalSpeed="0.00" depart="43294.00" departPos="25.06" id="h13945c2:1" type="default_011">
        <routeDistribution last="0">
            <route cost="101127.16" edges="30482638#11 25573246#0 25573254 25573260#1 -153692841#4 153692837#5 -30482638#8 -30482638#3 -30482638#2 -201926266 -90587320 -37480109 -90587323 -10425611#1 -10425611#0 -10425611#0.35 -164051429#1 -164051429#0 -161678034#2 -161678034#2.33 -161678034#2.50 -161678034#1 -161678034#0 28119593 -24983010#2 -24983010#0 -24692391#3 -24692391#1 144659495 144659489 24762523#0 24762523#1 31773007 77670297#0 52572753#0 52572753#2 29119898 145069331#0 145069287#0 145069287#0.136 -103512667#0 103512671 -33102477 -33102476 -36689751#2 10425609#0 10425609#1 201956819#0 201956810 25149001#0 25149001#1 25149001#3 25149001#4 25149001#5 -653473569#0 -653473568#1 -28111977#10 -28111977#9 -28111977#8 -28111977#7 -28111977#6 -28111977#5 -28111977#4 -28111977#3 -28111977#2 -28111977#1 37681424#1 -18809672#5 -18809672#4 -18809672#1 -285549250#1 -128361102#1 128361107#0 128361107#1 449057056 378946908 128361091 379795371 378946906 128361098 -35926528#2 -35926528#1 -130185488#3 -130185488#2 -130185488#0 -136728344#5 -136728344#4 -136728344#3 -136728344#2 -136728344#0 -266561177#1 -266561177#0 -27830333#1 -27830333#0 -266561178#1 -307562643#2 -307562643#1 37255726#0 37255737#0 37255730 37255717#7 -37255678#3 131724120#0 131724120#1 -136728353 -37255672 18809237#0 18809237#1 139516076 139516077#0" probability="0.21907629"/>
            <route cost="100808.35" edges="30482638#11 25573246#0 25573254 -25573260#0 -30482638#10 -30482638#9 -30482638#8 -30482638#3 -30482638#2 -201926266 -90587320 -37480109 -90587323 -10425611#1 -10425611#0 -10425611#0.35 -164051429#1 -164051429#0 -161678034#2 -161678034#2.33 -161678034#2.50 -161678034#1 -161678034#0 28119593 -24983010#2 -24983010#0 26973015 -145069303#4 -145069303#3 -145069303#1 -145069303#0 -32009683#1 -24972185#9 -24972185#8 -24972185#8.373 -24972185#1 -32978638#3 -32978638#0 32021112#0 168702040#1 168702040#2 168702040#3 168702040#4 168702039#0 168702039#1 32999434#0 24693977#0 24693977#1 315392062#0 -160314346#1 -160314346#0 24634505 24634510#0 24634510#1 24634510#6 24634510#7 24634510#9 24634510#16 201238726#0 201238726#0.117 201238726#1 201238719#0 170018165#0 170018165#1 170018165#2 170018165#2.175 306240162#0 306240162#4 148352067 193806654 193806654.200 193806654.211 193806654.258 193806654.273 148351766 220013328 139429268 320733893 4396674#0 4396674#1 125002584#0 125002584#2 297778952 314970097 314970098#0 gneE9 305397289#1 379795390#2 379795389 391606915 161783479#0 -320733897#1 gneE6 161783478#0 161783478#1 26320091 8033475#0 148596540#0 18809237#0 18809237#1 139516076 139516077#0" probability="0.19829077"/>
            <route cost="101860.06" edges="30482638#11 25573246#0 25573246#1 -25597196#11 -25597196#9 -25597196#6 -25597196#5 -25597196#4 -25597196#3 -25597196#2 -25597196#1 42745460 42745461#0 42745461#1 54154922#0 54154922#1 26071515#0 4324828#0 -4324827#1 -164051429#1 -164051429#0 -161678034#2 -161678034#2.33 -161678034#2.50 -161678034#1 -161678034#0 28119593 -24983010#2 -24983010#0 26973015 -145069303#4 -145069303#3 -145069303#1 -145069303#0 -32009683#1 -24972185#9 -24972185#8 -24972185#8.373 -24972185#1 -32978638#3 -32978638#0 32021112#0 168702040#1 168702040#2 168702040#3 168702040#4 -315358253#3 -315358253#2 -315358253#1 -315358253#0 -315358248#1 -315358245 -202092675.36 -4942389#1 -4942389#0 -136436466 386687242 23166741#0 23166741#2 23166741#5 201201945#0 201201945#1 201201945#2 201201945#3 201201945#7 201201945#8 201089420#0 315358257#0 315358257#0.43 -315358255#4 -286646456#2 -286646456#0 -224251774#1 -224251774#0 224251776#0 306240162#0 306240162#4 148352067 193806654 193806654.200 193806654.211 193806654.258 193806654.273 148351766 220013328 139429268 320733893 4396674#0 4396674#1 125002584#0 125002584#2 297778952 297594879#0 297594879#2 -320733895#1 -161783475#6 -161783475#5 305397288#0 379795387#2 379795386 26320091 8033475#0 148596540#0 18809237#0 18809237#1 139516076 139516077#0" probability="0.19638058"/>
            <route cost="100998.89" edges="30482638#11 25573246#0 25573254 25573260#1 -153692841#4 153692837#5 -30482638#8 -30482638#3 -30482638#2 -201926266 -90587320 -37480109 -90587323 -10425611#1 -10425611#0 -10425611#0.35 -164051429#1 -164051429#0 -161678034#2 -161678034#2.33 -161678034#2.50 -161678034#1 -161678034#0 28119593 -24983010#2 -24983010#0 26973015 -145069303#4 -145069303#3 -145069303#1 -145069303#0 -32009683#1 -24972185#9 -24972185#8 -24972185#8.373 -24972185#1 -32978638#3 -32978638#0 32021112#0 168702040#1 168702040#2 168702040#3 168702040#4 -315358253#3 -315358253#2 -315358253#1 -315358253#0 -315358248#1 -315358245 -202092675.36 -4942389#1 -4942389#0 -136436466 386687242 23166741#0 23166741#2 23166741#5 201201945#0 201201945#1 201201945#2 201201945#3 201201945#7 201201945#8 201089420#0 315358257#0 315358257#0.43 -315358255#4 -286646456#2 -286646456#0 -224251774#1 -224251774#0 224251776#0 306240162#0 306240162#4 148352067 193806654 193806654.200 193806654.211 193806654.258 193806654.273 148351766 220013328 139429268 320733893 4396674#0 4396674#1 125002584#0 125002584#2 297778952 314970097 314970098#0 gneE9 305397289#1 379795390#2 379795389 391606915 161783479#0 -320733897#1 gneE6 161783478#0 161783478#1 26320091 8033475#0 148596540#0 18809237#0 18809237#1 139516076 139516077#0" probability="0.19510807"/>
            <route cost="103313.58" edges="30482638#11 25573246#0 25573254 -25573260#0 -30482638#10 -30482638#9 -30482638#8 -30482638#3 -30482638#2 -201926266 -54154921#3 -54154921#2 -24977473#2 164051410#0 164051410#1 32199969#0 32199969#2 32199969#5 32199989#0 32199989#1 323248156#0 266567301#1 64464420 25955089 64464430 32009826#0 32009826#1 31342305 30404124 266567307#0 233673425#0 233673425#1 29238186 140684000#0 140684000#1 203127020#0 200741048 248012814 29119850 29119850.70 30399662#0 30399662#1 54169280#0 54169280#1 54169280#2 54169280#3 54169280#4 54169280#6 386687232#0 386687242 23166741#0 23166741#2 23166741#5 201201945#0 201201945#1 201201945#2 201201945#3 201201945#7 201201945#8 201089420#0 315358257#0 315358257#0.43 -315358255#4 -286646456#2 -286646456#0 -224251774#1 -224251774#0 224251776#0 306240162#0 306240162#4 148352067 193806654 193806654.200 193806654.211 193806654.258 193806654.273 148351766 220013328 139429268 320733893 4396674#0 4396674#1 125002584#0 125002584#2 297778952 314970097 314970098#0 gneE9 305397289#1 379795390#2 379795389 391606915 161783479#0 -320733897#1 gneE6 161783478#0 161783478#1 26320091 8033475#0 148596540#0 18809237#0 18809237#1 139516076 139516077#0" probability="0.19114429"/>
        </routeDistribution>
    </vehicle>
    <vehicle arrivalPos="113.64" arrivalSpeed="0.00" depart="43304.00" departPos="67.46" id="h3976c1:3" type="default_011">
        <routeDistribution last="2">
            <route cost="492.66" edges="42745545#4 -25955175#2 -25955175#1 24608842#0 24608842#1 -160314345#6 24608846#0 24608846#1 168702040#3 168702040#4 168702039#0 168702039#1 -24634414#5 -24634414#4 -24634414#3 -24634414#2 -24634414#1 -24634414#0 23166741#2 23166741#5 201201945#0 201201945#1 201201945#2 201201945#3 201201945#7 -40888359 201089420#0 315358257#0 315358257#0.43 -315358254#1 -164078536 -201894096#8 -201894096#5 -201894096#3" probability="0.19265187"/>
            <route cost="379.64" edges="42745545#4 -25955175#2 -25955175#1 24608842#0 24608842#1 -160314345#6 -160314345#5 -315358245 -202092675.36 -4942389#1 -4942389#0 -136436466 386687242 23166741#0 23166741#2 23166741#5 201201953#0 40888360#0 -22724699#1 201201945#3 201201945#7 201201945#8 201089420#0 315358257#0 315358257#0.43 -315358254#1 -164078536 -201894096#8 -201894096#5 -201894096#3" probability="0.38680515"/>
            <route cost="397.30" edges="42745545#4 -25955175#2 -25955175#1 24608842#0 24608842#1 -160314345#6 24608846#0 24608846#1 168702040#3 168702040#4 -315358253#3 -315358253#2 -315358253#1 -315358253#0 -315358248#1 -315358245 -202092675.36 -4942389#1 -4942389#0 -136436466 386687242 23166741#0 23166741#2 23166741#5 201201945#0 201201945#1 201201945#2 201201945#3 201201945#7 201201945#8 201089420#0 315358257#0 315358257#0.43 -315358254#1 -164078536 -201894096#8 -201894096#5 -201894096#3" probability="0.24640527"/>
            <route cost="431.97" edges="42745545#4 -25955175#2 -25955175#1 24608842#0 24608842#1 -160314345#6 -160314345#5 -315358245 -202092675.36 -4942389#1 -4942389#0 -136436466 -315358251#1 -315358251#0 -315358242#2 -315358242#1 -315358242#0 -129379925 -40888351#6 -26677416#7 -26677416#3 26677540#0 26677540#1 26677540#2 -201950250#0 -26677542#1 -26677542#0 -201950263#6 -25117391#2 -25117391#1 315358257#0 315358257#0.43 -315358254#1 -164078536 -201894096#8 -201894096#5 -201894096#3" probability="0.06981798"/>
            <route cost="364.50" edges="42745545#4 -25955175#2 -25955175#1 24608842#0 24608842#1 -160314345#6 -160314345#5 -315358245 -202092675.36 -4942389#1 -4942389#0 -136436466 386687242 23166741#0 23166741#2 23166741#5 201201945#0 201201945#1 201201945#2 201201945#3 201201945#7 201201945#8 201089420#0 315358257#0 315358257#0.43 -315358254#1 -164078536 -201894096#8 -201894096#5 -201894096#3" probability="0.10431970"/>
        </routeDistribution>
    </vehicle>
    <vehicle arrivalPos="136.50" arrivalSpeed="0.00" depart="43312.00" departPos="8.49" id="h9893c1:1" type="default_011">
        <routeDistribution last="2">
            <route cost="770.99" edges="54154921#0 54154921#3 -90587320 -37480109 -203971378#1 -25192758 90587321#0 203971379#1 -54154922#1 -54154922#0 -42745461#1 -42745461#0 -42745460 -28132014#2 -28132014#0 -116765457#1 -116765457#0 -137463475#1 137463477#0 25902677#0 137463478#0 137463478#1 137463478#2 137463478#3 29238188#0 29238188#1 29238188#3 152077572#0 152077572#2 152077572#2.79 54858974 542727960 30399316#0 30399316#0.52 30399316#2 51745097#0 51745097#1 4942660 -4942659#1 24537805#0 64442509#0 128070690 306240160#0 306240160#1 128070667#0 128070667#1 128070665#0 128070665#1 542730346#0 542730346#1 192768914 194377108#0 194377108#0.135 194377108#1 30131200#0 30131200#1 30131201#0 30131201#1 192768909#0 202089408#0 202089408#1 198768615#0 128668757" probability="0.49290954"/>
            <route cost="702.94" edges="54154921#0 54154921#3 -90587320 -37480109 -203971378#1 -25192758 90587321#0 203971379#1 -54154922#1 -54154922#0 -42745461#1 -42745461#0 -42745460 -28132014#2 -28132014#0 -116765457#1 -116765457#0 -137463475#1 137463477#0 305390325#0 25797295#0 201444272#1 201444272#3 29027727#0 29027727#4 29027727#6 29027727#7 29027727#9 152077572#0 152077572#2 152077572#2.79 54858974 542727960 30399316#0 30399316#0.52 30399316#2 51745097#0 51745097#1 4942660 -4942659#1 24537805#0 64442509#0 128070690 306240160#0 306240160#1 128070667#0 128070667#1 128070665#0 128070665#1 542730346#0 542730346#1 192768914 194377108#0 194377108#0.135 194377108#1 30131200#0 30131200#1 30131201#0 30131201#1 192768909#0 202089408#0 202089408#1 198768615#0 128668757" probability="0.17786399"/>
            <route cost="847.13" edges="54154921#0 54154921#3 -90587320 -37480109 -90587323 -10425611#1 -10425611#0 -10425611#0.35 -164051429#1 -164051429#0 24970784#0 164051410#0 164051410#1 32199969#0 32199969#2 32199969#5 32199989#0 32199989#1 323248156#0 25797090#1 201444272#0 201444272#1 201444272#3 29027727#0 29027727#4 29027727#6 29027727#7 29027727#9 152077572#0 152077572#2 152077572#2.79 54858974 542727960 30399316#0 30399316#0.52 30399316#2 51745097#0 51745097#1 4942660 -4942659#1 24537805#0 64442509#0 128070690 306240160#0 306240160#1 128070667#0 128070667#1 128070665#0 128070665#1 542730346#0 542730346#1 192768914 194377108#0 194377108#0.135 194377108#1 30131200#0 30131200#1 30131201#0 30131201#1 192768909#0 202089408#0 202089408#1 198768615#0 128668757" probability="0.15031547"/>
            <route cost="802.64" edges="54154921#0 54154921#3 -90587320 -37480109 -203971378#1 -25192758 90587321#0 203971379#1 -54154922#1 -54154922#0 -24977473#2 164051410#0 164051410#1 32199969#0 32199969#2 32199969#5 32199989#0 32199989#1 323248156#0 25797090#1 201444272#0 201444272#1 201444272#3 29027727#0 29027727#4 29027727#6 29027727#7 29027727#9 152077572#0 152077572#2 152077572#2.79 54858974 542727960 30399316#0 30399316#0.52 30399316#2 51745097#0 51745097#1 4942660 -4942659#1 24537805#0 64442509#0 128070690 306240160#0 306240160#1 128070667#0 128070667#1 128070665#0 128070665#1 542730346#0 542730346#1 192768914 194377108#0 194377108#0.135 194377108#1 30131200#0 30131200#1 30131201#0 30131201#1 192768909#0 202089408#0 202089408#1 198768615#0 128668757" probability="0.14086602"/>
            <route cost="888.95" edges="54154921#0 54154921#3 -90587320 -37480109 -203971378#1 -25192758 90587321#0 203971379#1 -54154922#1 -54154922#0 -42745461#1 -42745461#0 -42745460 -28132014#2 -28132014#0 24978651 115082348#0 115082348#1 115082348#3 115082348#4 257907858#0 257907860#0 257907860#1.168 25902677#0 137463478#0 137463478#1 137463478#2 137463478#3 29238188#0 29238188#1 29238188#3 152077572#0 152077572#2 152077572#2.79 54858974 542727960 30399316#0 30399316#0.52 30399316#2 51745097#0 51745097#1 4942660 -4942659#1 24537805#0 64442509#0 128070690 306240160#0 306240160#1 128070667#0 128070667#1 128070665#0 128070665#1 542730346#0 542730346#1 192768914 194377108#0 194377108#0.135 194377108#1 30131200#0 30131200#1 30131201#0 30131201#1 192768909#0 202089408#0 202089408#1 198768615#0 128668757" probability="0.03804498"/>
        </routeDistribution>
    </vehicle>
    <vehicle arrivalPos="32.32" arrivalSpeed="0.00" depart="43312.00" departPos="28.71" id="randUni7641:1" type="random_011">
        <routeDistribution last="2">
            <route cost="1732.65" edges="25136983#0 -173167526#1 -173167521#1 -173167521#0 25136982#1 41051113#0 41051113#1 25141430#0 173167517 25190140#1 25190140#2 -18813598#7 25136986 26642362#0 28111977#6 28111977#7 28111977#8 -25187893 25145012#1 25145012#2 25145012#3 25145012#4 25145012#5 25145012#6 -25145013#0 653473569#5 164051413 104010475#0 104012170 -32124745 -32124743 -32124744 -201089423#2 -201089423#1 -32999434#1 32999110#0 32999110#1 402600768#0 402600768#1 51857517#0 51857517#0.33 51857517#1 51857518#1 32978638#0 32978638#1 24972185#0 24972185#2 24972185#2.111 24972185#9 29048562#0 11014139#0 24991573 24991571 64464405 266567306 64464408 64464384#1 32009827 266567303 266567294#0 31342064#1 31342064#1.83 305495773#0 266507551 266507552#0 27202149 202070427#0 202070427#1 175761129#0 -25573267#0 175761126 28132869 261448661 -175761127#13 28132813 202070429#6 202070429#7 -149045269#4 -149045269#2 -149045269#1 gneE136 -201789797#1 -25597196#12 -25573246#1 -25573246#0 30482638#12 201789799#0 201789799#1 201789799#2 201789798#0 201789798#1 202070435#0 202070435#1 202070435#2 202070435#5 202070435#5.37 202070435#5.70 35743273 35743389#1 35743389#3 37192507#0 37192507#1" probability="0.30355489"/>
            <route cost="689.04" edges="25136983#0 -173167526#1 -173167526#0 -173167525#0 25136980#3 25136980#5 25136980#6 25136980#7 25136980#8 25136980#9 -25149251#1 -25149251#0 173169611#4 25171366#0 25171366#1 25171366#2 25076787#1 -23442105#0 -151167738#2 -151167738#1 -151167738#0 -201969576#5 -201969576#4 -201969576#1 -201969576#0 102818925 102818928#1 389831364 542617943 28418764#0 28418764#0.126 28418764#0.141 28418764#2 32350852#0 32350852#3 32350852#4 51857519#0 161678034#0 161678034#1 161678034#2 161678034#2.30 161678034#2.46 164051429#0 164051429#1 10425611#0 10425611#0.83 10425611#1 203971380 37480109 90587320 90587320.64 201926266 30482638#0 30482638#3 30482638#4 30482638#9 30482638#10 30482638#11 30482638#12 201789799#0 201789799#1 201789799#2 201789798#0 201789798#1 202070435#0 202070435#1 202070435#2 202070435#5 202070435#5.37 202070435#5.70 35743273 35743389#1 35743389#3 37192507#0 37192507#1" probability="0.26145754"/>
            <route cost="1241.30" edges="25136983#0 -173167526#1 -173167526#0 -173167525#0 -25136980#2 25136981 173167522#0 173167522#1 -25149251#2 -25149251#1 -25149251#0 173169611#4 25171366#0 25171366#1 25171366#2 25076787#1 -23442105#0 -151167738#2 -151167738#1 -151167738#0 -201969576#5 -201969576#4 -201969576#1 -201969576#0 102818925 102818928#1 389831364 542617943 28418764#0 28418764#0.126 28418764#0.141 28418764#2 32350852#0 32350852#3 32350852#4 51857519#0 161678034#0 161678034#1 161678034#2 161678034#2.30 161678034#2.46 24970784#0 164051410#0 24989879 25597196#0 25597196#2 25597196#3 25597196#4 25597196#5 25595931 153692841#3 153692841#4 -25573260#1 -25573254 -25573246#0 -30482638#11 25640157#0 25640375#0 25640145#0 25640145#2 25640147#0 -92026769#2 -92026769#1 -92026769#0 -25895947#1 -25895947#0 202070435#2 202070435#5 202070435#5.37 202070435#5.70 202070435#9 35743389#0 35743389#1 35743389#3 37192507#0 37192507#1" probability="0.20217086"/>
            <route cost="2339.57" edges="25136983#0 -173167526#1 -173167521#1 -173167521#0 25136982#1 41051113#0 41051113#1 25141430#0 173167517 -25190140#0 25149001#4 25149001#5 653473569#1 653473569#2 653473569#3 653473569#5 164051413 104010475#0 104012170 -32124745 -32124743 -32124744 -201089423#2 -201089423#1 -32999434#1 32999110#0 32999110#1 402600768#0 402600768#1 51857517#0 51857517#0.33 51857517#1 51857516#1 -266565295#5 -266565295#4 -266565295#3 -148050451#2 -148050452#0 148050455#1 148050455#2 28639688#0 28639688#1 28639688#3 116687469#0 248012815#0 248012815#1 30399325 30399322#1.56 30399322#2 30399322#3.66 542635729 31342347 32203023#0 32203023#2 32203023#2.134 31342350#0 144657087#0 144657087#1 -26176223#1 -26176223#0 -25895864#1 -25895864#0 -71900674#1 -71900674#0 -33280103#0 33280102#0 26180729 175761129#0 -25573267#0 175761126 28132869 261448661 -175761127#13 28132813 -25597372 -25640093#1 -149045269#1 gneE136 -25596851#6 -25596851#5 -25596851#4 -151167720#1 -151167720#0 201789799#2 201789798#0 201789798#1 202070435#0 202070435#1 202070435#2 202070435#5 202070435#5.37 202070435#5.70 202070435#9 -37192505#2 -37192505#0 -52918687#2 -37192504 37192507#1" probability="0.15633497"/>
            <route cost="1147.23" edges="25136983#0 -173167526#1 -173167526#0 -173167525#0 -25136980#2 25136981 173167522#0 173167522#1 -25149251#2 -25149251#1 -25149251#0 -173169611#3 -173169611#0 201956821#0 201956821#1.68 201956811#0 36689751#0 -18909063#2 -18909063#0 389831363#0 32061928#2 32061928#4 32061928#5 389840420#3 24972185#0 24972185#2 24972185#2.111 24972185#9 29048562#0 11014139#0 24991573 24991571 64464405 266567306 64464408 64464384#1 32009827 266567303 266567294#0 31342064#1 31342064#1.83 305495773#0 266507551 266507552#0 31021475 202070430 202070429#0 202070429#1 202070429#2 202070429#3 202070429#4 202070429#5 202070429#6 202070429#7 201789794#0 201789794#3 308849647 266507550 30320943 378466167 266507548 32976755 327975020 327975024 327975024.20 327975024.51 327975019 28132017 32976751 32976751.35 146973222 39577538 306793671 157305700#0 157305700#1 157305700#2 157305700#3 157305700#4 40059576#1 171007007#0 52918687#0 52918687#1 -37192504 37192507#1" probability="0.07648174"/>
        </routeDistribution>
    </vehicle>
    <vehicle arrivalPos="0.00" arrivalSpeed="0.00" depart="43313.00" departPos="59.89" id="h10649c2:3" type="default_011">
        <routeDistribution last="2">
            <route cost="101068.32" edges="25902677#0 137463474#0 137463474#1 -25796964#0 -32202927#0 -25638527 -25796375#2 -25796375#1 -25796375#0 202070427#1 202070427#2 33280103#0 33280103#1 33280103#2 33280103#3 33280103#4 33280103#4.68 391208990 391029009#0 391029009#0.69 391029009#1 391029009#1.157 41425835 41425835.214 41425835.236 151167747 151167747.23 39704923 266507553 48395120#0 48395120#1 32976755 327975020 327975024 327975024.20 327975024.51 327975019 28132017 32976751 32976751.35 306793670#0 306793670#1" probability="0.20664193"/>
            <route cost="101625.61" edges="25902677#0 137463478#0 137463478#1 -32202927#2 -32202927#1 -32202927#0 -25638527 25796388 gneE147 -71900674#2 -71900674#1 -71900674#0 -33280103#0 33280102#0 26180729 175761129#0 175761129#1 202070429#4 202070429#5 202070429#6 202070429#7 201789794#0 201789794#3 308849647 266507550 30320943 378466167 266507548 32976755 327975020 327975024 327975024.20 327975024.51 327975019 28132017 32976751 32976751.35 306793670#0 306793670#1" probability="0.20629792"/>
            <route cost="100354.79" edges="25902677#0 25796398#0 305495773#0 266507551 85564606 -115082348#5 -115082348#3 -25640093#7 25640097#0 25640097#1 25640099 25597196#3 25597196#4 25597196#5 25597196#6 -153692837#3 gneE134 -481432711 -41139095 -25596851#6 -25596851#5 -25596851#4 -25596851#3 -25596851#2 -25596851#1 -25596851#0 201880159#1 201880159#2 201789796#0.31 201789796#1 30320943 378466167 266507548 32976755 327975020 327975024 327975024.20 327975024.51 327975019 28132017 32976751 32976751.35 306793670#0 306793670#1" probability="0.19943713"/>
            <route cost="102112.62" edges="25902677#0 137463474#0 137463474#1 -25796964#0 -32202927#0 -25638527 -25796375#2 -25796375#1 -25796375#0 202070427#1 175761129#0 -25573267#0 175761126 28132869 261448661 -175761127#13 28132813 202070429#6 202070429#7 201789794#0 201789794#3 308849647 266507550 30320943 378466167 266507548 32976755 327975020 327975024 327975024.20 327975024.51 327975019 28132017 32976751 32976751.35 306793670#0 306793670#1" probability="0.19669880"/>
            <route cost="100705.46" edges="25902677#0 137463474#0 137463474#1 -25796964#0 -32202927#0 -25638527 -25796375#2 -25796375#1 33280102#3 33280102#5 31021475 202070430 202070429#0 202070429#1 202070429#2 202070429#3 202070429#4 202070429#5 202070429#6 202070429#7 201789794#0 201789794#3 308849647 266507550 30320943 378466167 266507548 32976755 327975020 327975024 327975024.20 327975024.51 327975019 28132017 32976751 32976751.35 306793670#0 306793670#1" probability="0.19092422"/>
        </routeDistribution>
    </vehicle>
    <vehicle arrivalPos="0.00" arrivalSpeed="0.00" depart="43315.00" departPos="15.99" id="h3098c1:1" type="default_011">
        <routeDistribution last="3">
            <route cost="101406.66" edges="23525483#6 23525483#7 -23525483#0 -23436553#1 -22690205#1 233675413#4 233675413#7 -25145013#1 -25145013#0 653473569#5 164051413 124812857#0 201956811#0 36689751#0 33102476 173148224#1 -137685135 -51856496#7 -51856496#5 -51856496#4 -51856496#3 -51856496#2 -51856496#1 -51856496#0 -390282481 -156923526#3 -156923526#2 -10425610#2 389831364 542617943 28418764#0 28418764#0.126 28418764#0.141 28418764#2 32350852#0 32350852#3 32350852#4 51857519#0 161678034#0 161678034#1 161678034#2 161678034#2.30 161678034#2.46 164051429#0 164051429#1 10425611#0 10425611#0.83 10425611#1 203971380 37480109 90587320 90587320.64 201926266 30482638#0 30482638#3 30482638#4 30482638#9 30482638#10 30482638#11 30482638#12 201789799#0 201789799#1 201789799#2 201789798#0 201789798#1 202070435#0 10941820 201880159#0 201880159#1 201880159#2 201789796#0.31 201789796#1 30320943 23622426 -195073412#2 -195073412#1 -195073412#0 195073415 266507536 27550700 27454737 266507535 32930761 146973160 266885714 266885716 266885719 266885719.121 266885713 221257625.670 221257625.683 221257625.1565 221257625.1575" probability="0.20479050"/>
            <route cost="102446.12" edges="23525483#6 23525483#7 -23525483#0 -23436553#1 -22690205#1 233675413#4 233675413#7 139230366 27920078#0 27920078#1 -32124745 172488483#0 -83304175#2 -83304175#2.184 -83304175#2.204 32061928#5 389840420#3 24972185#0 24972185#2 24972185#2.111 24972185#9 29048562#0 11014139#0 24991573 24991571 64464405 266567306 64464408 64464384#1 32009827 266567303 266567294#0 31342064#1 31342064#1.83 305495773#0 266507551 266507552#0 27202149 202070427#0 202070427#1 175761129#0 -25573267#0 175761126 28132869 261448661 -175761127#13 28132813 202070429#6 202070429#7 201789794#0 201789794#3 308849647 266507550 30320943 23622426 -195073412#2 -195073412#1 -195073412#0 195073415 266507536 27550700 27454737 266507535 32930761 146973160 266885714 266885716 266885719 266885719.121 266885713 221257625.670 221257625.683 221257625.1565 221257625.1575" probability="0.20439787"/>
            <route cost="116485.14" edges="23525483#6 23525483#7 -23525483#0 -23436553#1 -22690205#1 233675413#4 -25145011#2 -25145011#0 -653473569#2 -653473569#1 -25149001#5 -25149001#4 -25149001#3 25188976#0 25188976#1 25188977 -25149001#0 173169611#1 173169611#4 25171366#0 25171366#1 -25188986#1 25194376#0 25194376#1 25076749#0 -25182130 33102205#2 33102205#3 136728366#0 136728366#1 136728351#0 136728351#1 -201969576#1 -201969576#0 -61940355 -24495188 -29458641 -61940356 29458640#0 172517198#0 306396705 174321447 58295043 32923863#2 266607804#0 266607804#1 266607804#2 4819338#0 4819338#1 4819338#2 4819338#4 163586462 28269810#0 28269810#2 28269810#3 28269810#4 30482619 -205182378#7 -20588624#2 -20588624#1 -20588624#0 201926265#2 -20266189#1 -20266189#0 -72883541#1 -20266190#2 -20266190#1 -266887593#3 -266887591 -141058757 111525330#0 350320331#0 266885723#0 161680732 146973150#0 266885719 266885719.121 266885713 221257625.670 221257625.683 221257625.1565 221257625.1575" probability="0.20064288"/>
            <route cost="102163.63" edges="23525483#6 23525483#7 -23525483#0 -23436553#1 -22690205#1 233675413#4 233675413#7 -25145013#1 25145012#7 104010354 124812857#0 201956811#0 36689751#0 33102476 173148224#1 -137685135 -51856496#7 -51856496#5 -51856496#4 -51856496#3 -51856496#2 -51856496#1 -51856496#0 -390282481 -156923526#3 -156923526#2 -10425610#2 389831364 32124561#0 32124561#1 32124561#3 32124561#4 233673423 28418763 -379723624#1 -379723624#0 -32923867#4 -32923867#3 -32923867#2 -32923867#1 -32923867#0 130996520 130996520.58 172519650 356952270 54033673#0 54033673#0.28 54033673#2 54033673#3 29458645 29458645.65 29458645.81 201278214#0 201278216#0 29458647#0 37282369 354967544#0 354967544#1 354967544#2 -266887590#1 -266887590#0 -589179144 -266887589#2 -201926268#1 -266887588#1 -266887588#0 -266887593#6 -266887593#3 -266887591 -141058757 111525330#0 350320331#0 266885723#0 161680732 146973150#0 266885719 266885719.121 266885713 221257625.670 221257625.683 221257625.1565 221257625.1575" probability="0.19833622"/>
            <route cost="108303.56" edges="23525483#6 23525483#7 -23525483#0 -23436553#1 -22690205#1 233675413#4 233675413#7 139230366 27920078#0 27920078#1 -32124745 -32124743 -32124744 -201089423#2 -201089423#1 -32999434#1 32999110#0 32999110#1 402600768#0 402600768#1 51857517#0 51857517#0.33 51857517#1 51857516#1 -266565295#5 -266565295#4 -266565295#3 -266565295#2 -266565295#1 -266565295#0 -266565299 -24977590#1 -24977590#0 -233673425#1 -233673425#0 -266567307#1 -30404124 30417892 266567308#0 64464384#1 32009827 266567303 266567294#0 31342064#1 31342064#1.83 31894763#0 137463475#0 116765457#0 116765457#1 28132014#0 28132014#1 42745460 42745461#0 42745461#1 54154922#0 54154922#1 26071515#0 26071515#1 4324820 164051399 201956817 33279254#1 556434727 542630099 354967545#0.45 354967545#1 -266887590#1 -266887590#0 -589179144 -266887589#2 -201926268#1 -266887588#1 -266887588#0 -266887593#6 -266887593#3 -266887591 -141058757 111525330#0 350320331#0 266885723#0 161680732 146973150#0 266885719 266885719.121 266885713 221257625.670 221257625.683 221257625.1565 221257625.1575" probability="0.19183253"/>
        </routeDistribution>
    </vehicle>
    <vehicle arrivalPos="368.84" arrivalSpeed="0.00" depart="43317.00" departPos="13.38" id="h12975c1:1" type="default_011">
        <routeDistribution last="1">
            <route cost="865.33" edges="-201789797#0 -32350901#2 -25640145#4 -25640145#3 -25640145#2 -25640145#1 -25640375#0 -25640157#0 -30482638#10 -30482638#9 -30482638#8 -30482638#3 -30482638#2 -201926266 -90587320 -37480109 -90587323 -10425611#1 -10425611#0 -10425611#0.35 -164051429#1 -164051429#0 -161678034#2 -161678034#2.33 -161678034#2.50 -161678034#1 -161678034#0 28119593 -24983010#2 -24983010#0 26973015 -145069303#4 -145069303#3 -145069303#1 -145069303#0 -32009683#1 -24972185#9 -24972185#8 -24972185#8.373 -24972185#1 -32978638#3 -32978638#0 32021112#0 168702040#1 168702040#2 168702040#3 168702040#4 -315358253#3 -315358253#2 -315358253#1 -315358253#0 -315358248#1 -315358245 -202092675.36 -4942389#1 -4942389#0 -136436466 386687242 23166741#0 23166741#2 23166741#5 201201945#0 201201945#1 201201945#2 201201945#3 201201945#7 201201945#8 201089420#0 315358257#0 315358257#0.43 -315358255#4 -286646456#2 -286646456#0 -224251774#1 -224251774#0 224251776#0 306240162#0 306240162#4 148352067 77414810#0 138396239#1 77414807#0 -137672872 -611319827 23622271#0 23622271#3 23622271#6 320733908" probability="0.31183992"/>
            <route cost="854.51" edges="-201789797#0 201789799#0 201789799#1 151167720#0 151167720#1 25596851#4 25596851#5 25596851#6 41139095 481432711 gneE132 -153692837#2 -153692837#1 -153692837#0 -202070429#4 -202070429#3 -202070429#2 -202070429#1 -202070429#0 151167728 257907859#0 257907859#1 257907860#0 257907860#1.168 305390325#0 305390325#3 266567304#0 266567301#1 64464420 25955089 64464430 32009826#0 32009826#1 31342305 30404124 266567307#0 233673425#0 233673425#1 29238186 140684000#0 140684000#1 203127020#0 200741048 248012814 29119850 29119850.70 30399662#0 30399662#1 54169280#0 54169280#1 54169280#2 54169280#3 54169280#4 54169280#6 386687232#0 386687242 23166741#0 23166741#2 23166741#5 201201945#0 201201945#1 201201945#2 201201945#3 201201945#7 201201945#8 201089420#0 315358257#0 315358257#0.43 -315358255#4 -286646456#2 -286646456#0 -224251774#1 -224251774#0 224251776#0 306240162#0 306240162#4 148352067 77414810#0 138396239#1 77414807#0 -137672872 -611319827 23622271#0 23622271#3 23622271#6 320733908" probability="0.29818682"/>