<routes >
    <vType color="red" id="default_010" vClass="passenger"/>
    <vType color="blue" id="random_010" vClass="passenger"/>
    <vehicle arrivalPos="25.00" arrivalSpeed="0.00" depart="40858.00" departPos="149.02" id="h2316c2:1" type="default_010">
        <routeDistribution last="0">
            <route cost="2210.84" edges="-23525483#5 -23525483#0 23436553#2 -218647947#1 -24634510#6 -24634510#5 -24634510#0 -24634505 160314346#0 160314346#1 -315392062#4 -24693977#1 -24693977#0 -32999434#1 32999110#0 32999110#1 402600768#0 402600768#1 51857517#0 51857517#0.33 51857517#1 51857518#1 32978638#0 32978638#1 24972185#0 24972185#2 24972185#2.111 24972185#9 29048562#0 11014139#0 24991573 24991571 64464405 266567306 64464408 64464384#1 32009827 266567303 266567294#0 31342064#1 31342064#1.83 25902677#0 137463474#0 25797315#0 25797315#1 -25797433#1 -25797433#0 26176222#0 26176222#1 33280103#4 33280103#4.68 391208990 391029009#0 391029009#0.69 391029009#1 391029009#1.157 41425835 41425835.214 41425835.236 151167747 151167747.23 549032836 39704924 39704922 266507540 27392720 27392724 266507546 266507536 27550700 27454737 266507535 32930761 146973160 266885714 146973156#0 450076615#0 161680739 27453586#0 gneE119" probability="0.26346053"/>
            <route cost="1930.54" edges="-23525483#5 -23525483#0 -23436553#1 -22690205#1 233675413#4 233675413#7 -25145013#1 25145012#7 104010354 124812857#0 201956811#0 36689751#0 33102476 173148224#1 -137685135 -51856496#7 -51856496#5 -51856496#4 -51856496#3 -51856496#2 -51856496#1 -51856496#0 -390282481 -156923526#3 -156923526#2 -10425610#2 389831364 542617943 28418764#0 28418764#0.126 28418764#0.141 28418764#2 32350852#0 32350852#3 32350852#4 51857519#0 161678034#0 161678034#1 161678034#2 161678034#2.30 161678034#2.46 164051429#0 164051429#1 10425611#0 10425611#0.83 10425611#1 203971380 37480109 90587320 90587320.64 201926266 30482638#0 30482638#3 30482638#4 30482638#9 30482638#10 30482638#11 30482638#12 201789799#0 201789799#1 201789799#2 201789798#0 201789798#1 202070435#0 10941820 201880159#0 201880159#1 201880159#2 201789796#0.31 201789796#1 30320943 378466167 266507548 257907861 151167740 266507555 266507558 39704924 39704922 266507540 27392720 27392724 266507546 266507536 27550700 27454737 266507535 32930761 146973160 266885714 146973156#0 450076615#0 161680739 27453586#0 gneE119" probability="0.22697518"/>
            <route cost="3422.59" edges="-23525483#5 -23525483#0 -23436553#1 -22690205#1 233675413#4 233675413#7 -25145013#1 25145012#7 104010354 124812857#0 201956819#0 201956820 -29497467 -201969576#7 -201969576#6 -201969576#5 -201969576#4 -201969576#1 -201969576#0 -61940355 -24495188 -29458641 -61940356 29458640#0 172517198#0 306396705 -103718173 -27893434#1 -27893434#0 -23184317 168245119#0 -20975950#0 37282688#2 37282688#4 37282688#5 23184252#0 23184252#1 201926265#0 201926265#1 201926265#2 -20266189#1 -20266189#0 -72883541#1 -20266190#2 -20266190#1 -266887593#3 -266887591 -141058757 111525330#0 350320331#0 266885723#0 161680739 27453586#0 gneE119" probability="0.17668980"/>
            <route cost="2114.07" edges="-23525483#5 -23525483#0 -23436553#1 -22690205#1 233675413#4 233675413#7 139230366 27920078#0 27920078#1 -32124745 172488483#0 -83304175#2 -83304175#2.184 -83304175#2.204 32061928#5 389840420#3 24972185#0 24972185#2 24972185#2.111 24972185#9 29048562#0 11014139#0 24991573 24991571 64464405 266567306 64464408 64464384#1 32009827 266567303 266567294#0 31342064#1 31342064#1.83 305495773#0 266507551 266507552#0 27202149 202070427#0 202070427#1 202070427#2 33280103#0 33280103#1 33280103#2 33280103#3 33280103#4 33280103#4.68 391208990 391029009#0 391029009#0.69 391029009#1 391029009#1.157 41425835 41425835.214 41425835.236 151167747 151167747.23 549032836 39704924 39704922 266507540 27392720 27392724 266507546 266507536 27550700 27454737 266507535 32930761 146973160 266885714 146973156#0 450076615#0 161680739 27453586#0 gneE119" probability="0.17501303"/>
            <route cost="3399.24" edges="-23525483#5 -23525483#0 -23436553#1 -22690205#1 233675413#4 233675413#7 -25145013#1 25145012#7 104010354 124812857#0 201956819#0 201956820 -29497467 -201969576#7 -201969576#6 -201969576#5 -201969576#4 -201969576#1 -201969576#0 -61940355 -24495188 -29458641 -61940356 29458640#0 172517198#0 356952270 54033673#0 54033673#0.28 54033673#2 54033673#3 29458645 29458645.65 29458645.81 37282738 103718186 37282688#2 37282688#4 37282688#5 23184252#0 23184252#1 201926265#0 201926265#1 201926265#2 -20266189#1 -20266189#0 -72883541#1 -20266190#2 -20266190#1 -266887593#3 -266887591 -141058757 111525330#0 350320331#0 266885723#0 161680739 27453586#0 gneE119" probability="0.15786146"/>
        </routeDistribution>
    </vehicle>
    <vehicle arrivalPos="2.94" arrivalSpeed="0.00" depart="40862.00" departPos="22.55" id="randUni16015:1" type="random_010">
        <routeDistribution last="3">
            <route cost="266.03" edges="-24982688#2 -24982688#1 -24982688#1.52 -145069366#3 -145069366#2 32350852#0 32350852#3 32350852#4 -161678033#0 -24983010#2 -24983010#0 26973015 -145069303#4 -145069303#3 -145069303#1 -145069303#0 -32009683#1 24537982#0 24537982#2 24537982#3 24537982#4 266565302 380273343 29238186 165520704 -24989986 165520706 380273341" probability="0.72344140"/>
            <route cost="653.63" edges="-24982688#2 -24982688#1 -24982688#1.52 -32200983#6 -32200983#1 24872530#0 24692328 -24692328 -24872530#1 32200983#0 32200983#3 24982688#0 24982688#0.12 24982688#2 24982688#3 145069294#0 32201042 32201044#0 145069336#0 145069336#1 145069336#2 145069280#0 -145069391 145069286#0 32229741 32229742#1 32229742#3 32229742#4 32229742#5 145069311#0 145069316#0 145069316#1 145069313#2 -103512667#2 -103512667#1 -145069287#7 -145069287#7.50 32230348 145069342#0 35926319#1 -108310253 -29458096 -51856495#2 -29458097#2 -32978638#3 -32978638#0 32021112#0 51857516#1 -266565295#5 -266565295#4 -266565295#3 -148050451#2 -148050452#0 148050455#1 148050455#2 28639688#0 28639688#1 28639688#3 24890429#0 24890429#1 24890429#2 -203127020#4 -140684000#1 -140684000#0 380273341" probability="0.06767679"/>
            <route cost="679.89" edges="-24982688#2 145069278#0 103687353 32200983#0 32200983#3 24982688#0 24982688#0.12 24982688#2 24982688#3 145069294#0 32201042 32201044#0 145069336#0 145069336#1 145069336#2 145069280#0 -145069391 145069286#0 32229741 32229742#1 32229742#3 32229742#4 32229742#5 145069311#0 145069316#0 145069316#1 145069313#2 -103512667#2 -103512667#1 -145069287#7 -145069287#7.50 32230348 145069342#0 35926319#1 -108310253 -29458096 -51856495#2 -29458097#2 -32978638#3 -32978638#0 32021112#0 51857516#1 -266565295#5 -266565295#4 -266565295#3 -266565295#2 148050448#0 148050448#1 306431310#1 148050457#0 148050453#5 25794520 24890429#2 -203127020#4 -140684000#1 -140684000#0 380273341" probability="0.01946929"/>
            <route cost="299.39" edges="-24982688#2 -24982688#1 -24982688#1.52 -145069366#3 -145069366#2 32350852#0 32350852#3 32350852#4 -161678033#0 -24983010#2 -24983010#0 26973015 -145069303#4 -145069303#3 -145069303#1 -145069303#0 11014139#0 24991573 24991571 64464405 266567306 64464408 31342305 30404124 266567307#0 233673425#0 233673425#1 29238186 165520704 -24989986 165520706 380273341" probability="0.18320592"/>
            <route cost="603.15" edges="-24982688#2 145069278#0 103687353 32200983#0 32200983#3 24982688#0 24982688#0.12 24982688#2 29002614 32201042 32201044#0 145069336#0 145069336#1 145069336#2 145069280#0 -145069391 145069286#0 32229741 32229742#1 32229742#3 32229742#4 32229742#5 145069311#0 145069316#0 145069316#1 145069313#2 -103512667#2 -103512667#1 -145069287#7 -145069287#7.50 32230348 145069342#0 35926319#1 -108310253 168434696 32259258 29027840 77912237 32200414#0 29027839#0 29027839#2 31343367#0 24537982#0 24537982#2 24537982#3 24537982#4 266565302 380273343 29238186 165520704 -24989986 165520706 380273341" probability="0.00620660"/>
        </routeDistribution>
    </vehicle>
    <vehicle arrivalPos="0.00" arrivalSpeed="0.00" depart="40866.00" departPos="5.52" id="h10158c1:3" type="default_010">
        <routeDistribution last="1">
            <route cost="350.33" edges="-25797433#3 -25797433#2 -25797433#1 -25797433#0 26176222#0 26176222#1 33280103#4 33280103#4.68 391208990 391029009#0 391029009#0.69 391029009#1 391029009#1.157 41425835 41425835.214 41425835.236 151167747 151167747.23 549032836 39704924 39704922" probability="0.62984532"/>
            <route cost="384.36" edges="-25797433#3 -25797433#2 -25797433#1 -25797433#0 26176222#0 26176222#1 33280103#4 33280103#4.68 97304242#0 25626605#0 25626605#1 25626605#2 25626605#4 60064938#0 60064938#1 60064938#2 60064938#3 60064938#4 391029014#0 391029014#1 -25623127#1 -25623127#0 -25623126#2 -25623126#1 -25623125#1 -4058127#1 151167747 151167747.23 549032836 39704924 39704922" probability="0.32764899"/>
            <route cost="2151.65" edges="-25797433#3 -25797433#2 -25797433#1 25638529 -32202763 gneE147 -71900674#2 -71900674#1 -71900674#0 -33280103#0 33280102#0 26180729 175761129#0 -25573267#0 175761126 28132869 261448661 -175761127#13 -175761127#11 -175761127#9 -175761127#7 -175761127#1 -36291830 30320943 378466167 266507548 257907861 151167740 266507555 266507558 39704924 39704922" probability="0.04226423"/>
            <route cost="362.43" edges="-25797433#3 -25797433#2 -25797433#1 -25797433#0 26176222#0 26176222#1 33280103#4 33280103#4.68 391208990 -391208989 -391029007 -25626614#2 -25626614#1 -25626614#0 -391208991 -542650762 -542650762.100 -4061708 41425835 41425835.214 41425835.236 151167747 151167747.23 549032836 39704924 39704922" probability="0.00023943"/>
            <route cost="605.39" edges="-25797433#3 -25797433#2 -25797433#1 25638529 -32202763 gneE147 -71900674#2 -71900674#1 -71900674#0 -33280103#0 33280102#0 26180729 175761129#0 175761129#1 202070429#4 202070429#5 202070429#6 202070429#7 201789794#0 201789794#3 308849647 266507550 30320943 378466167 266507548 257907861 151167740 266507555 266507558 39704924 39704922" probability="0.00000203"/>
        </routeDistribution>
    </vehicle>
    <vehicle arrivalPos="200.00" arrivalSpeed="0.00" depart="40866.00" departPos="51.53" id="h10294c2:1" type="default_010">
        <routeDistribution last="3">
            <route cost="1813.47" edges="-32202927#2 -25797315#0 -137463474#0 25796398#0 31894763#0 137463475#0 116765457#0 116765457#1 28132014#0 28132014#1 42745460 42745461#0 42745461#1 54154922#0 54154922#1 26071515#0 26071515#1 4324820 164051399 201956817 33279254#1 556434727 542630099 354967545#0.45 354967545#1 -266887590#1 -266887590#0 -589179144 -266887589#2 -201926268#1 -266887588#1 -266887588#0 -266887593#6 -266887593#3 -266887591 -141058757 111525330#0 350320331#0 266885723#0 161680732 146973150#0" probability="0.39783047"/>
            <route cost="2410.27" edges="-32202927#2 -25797315#0 -137463474#0 25796398#0 31894763#0 137463475#0 116765457#0 116765457#1 28132014#0 28132014#1 42745460 42745461#0 42745461#1 54154922#0 54154922#1 26071515#0 26071515#1 4324820 164051399 201956817 33279254#1 556434727 -201953160#4 -208010459#1 -208010459#0 -376285856#6 -58622231#9 -58622231#5 -58622231#2 -266887588#1 -266887588#0 -266887593#6 -266887593#3 -266887591 -141058757 111525330#0 350320331#0 266885723#0 161680732 146973150#0" probability="0.27578013"/>
            <route cost="8070.61" edges="-32202927#2 -32202927#1 -32202927#0 -25638527 -25796375#2 -25796375#1 33280102#3 33280102#5 -257907858#1 -115082348#5 -115082348#3 -115082348#2 -115082348#0 -24978651 28132014#0 28132014#1 42745460 42745461#0 42745461#1 54154922#0 54154922#1 26071515#0 26071515#1 4324820 164051399 201956817 33279254#1 556434727 542630099 354967545#0.45 354967545#1 141058765#0 141058765#1 141058765#2 141058765#2.33 31624236#0 172700927#0 -48742425#2 -20588641#4 -20588641#0 -201926269#1 20266191 -20266190#1 -266887593#3 -266887591 -141058757 111525330#0 350320331#0 266885723#0 161680732 146973150#0" probability="0.08162541"/>
            <route cost="1817.00" edges="-32202927#2 -32202927#1 -32202927#0 -25638527 -25796375#2 -25796375#1 33280102#3 33280102#5 -257907858#1 -115082348#5 -115082348#3 -115082348#2 -115082348#0 -24978651 28132014#0 28132014#1 42745460 42745461#0 42745461#1 54154922#0 54154922#1 26071515#0 26071515#1 4324820 164051399 201956817 33279254#1 556434727 542630099 354967545#0.45 354967545#1 -266887590#1 -266887590#0 -589179144 -266887589#2 -201926268#1 -266887588#1 -266887588#0 -266887593#6 -266887593#3 -266887591 -141058757 111525330#0 350320331#0 266885723#0 161680732 146973150#0" probability="0.22835458"/>
            <route cost="10320.97" edges="-32202927#2 -32202927#1 -32202927#0 -25638527 -25796375#2 -25796375#1 33280102#3 33280102#5 -257907858#1 -115082348#5 -115082348#3 -115082348#2 -115082348#0 -24978651 28132014#0 28132014#1 42745460 42745461#0 42745461#1 54154922#0 54154922#1 26071515#0 26071515#1 4324820 164051399 201956817 33279254#1 556434727 -201953160#4 -208010459#1 -461125445 -461125446#2 -115881041#4 -115881041#3 -115881041#0 -58622231#5 -58622231#2 -201926269#3 -201926269#2 -201926269#1 20266191 -20266190#1 -266887593#3 -266887591 -141058757 111525330#0 350320331#0 266885723#0 161680732 146973150#0" probability="0.01640943"/>
        </routeDistribution>
    </vehicle>
    <vehicle arrivalPos="0.00" arrivalSpeed="0.00" depart="40867.00" departPos="0.75" id="h1035c1:3" type="default_010">
        <routeDistribution last="3">
            <route cost="101597.49" edges="204388144#1 18909061#0 389831363#0 32061928#2 32061928#4 32061928#5 389840420#3 24972185#0 24972185#2 24972185#2.111 24972185#9 29048562#0 11014139#0 24991573 24991571 64464405 266567306 64464408 64464384#1 32009827 266567303 266567294#0 31342064#1 31342064#1.83 25902677#0 137463474#0 25797315#0 25797315#1 -25797433#1 -25797433#0 26176222#0 26176222#1 33280103#4 33280103#4.68 391208990 391029009#0 391029009#0.69 391029009#1 391029009#1.157 41425835 41425835.214 41425835.236 151167747 151167747.23 549032836 39704924 39704922 266507540 27392720 27392724 266507546 266507536 27550700 27454737 266507535 32930761 146973160 266885714 266885716 266885719 266885719.121 266885713 221257625.670 221257625.683 221257625.1565 221257625.1575" probability="0.22289924"/>
            <route cost="103100.86" edges="204388144#1 18909061#0 389831363#0 32061928#2 32061928#4 32061928#5 389840420#3 24972185#0 24972185#2 24972185#2.111 24972185#9 29048562#0 11014139#0 24991573 24991571 64464405 266567306 64464408 64464384#1 32009827 266567303 266567294#0 31342064#1 31342064#1.83 305495773#0 266507551 266507552#0 31021475 202070430 202070429#0 202070429#1 202070429#2 202070429#3 202070429#4 202070429#5 -28132813 -175761127#11 -175761127#9 -175761127#7 -175761127#1 -36291830 30320943 378466167 266507548 257907861 151167740 266507555 266507558 39704924 39704922 266507540 27392720 27392724 266507546 266507536 27550700 27454737 266507535 32930761 146973160 266885714 266885716 266885719 266885719.121 266885713 221257625.670 221257625.683 221257625.1565 221257625.1575" probability="0.19719243"/>
            <route cost="103243.83" edges="204388144#1 -33102476 -36689751#2 10425609#0 10425609#1 201956819#0 201956820 -29497467 -201969576#7 -201969576#6 -201969576#5 -201969576#4 -201969576#1 -201969576#0 -61940355 -24495188 -29458641 -61940356 29458640#0 172517198#0 306396705 -103718173 -27893434#1 -27893434#0 -23184317 168245119#0 -20975950#0 37282688#2 37282688#4 37282688#5 23184252#0 23184252#1 201926265#0 201926265#1 201926265#2 -20266189#1 -20266189#0 -72883541#1 -20266190#2 -20266190#1 -266887593#3 -266887591 -141058757 111525330#0 350320331#0 266885723#0 161680732 146973150#0 266885719 266885719.121 266885713 221257625.670 221257625.683 221257625.1565 221257625.1575" probability="0.19584016"/>
            <route cost="101493.20" edges="204388144#1 18909061#0 389831363#0 32061928#2 32061928#4 32061928#5 389840420#3 24972185#0 24972185#2 24972185#2.111 24972185#9 29048562#0 11014139#0 24991573 24991571 64464405 266567306 64464408 64464384#1 32009827 266567303 266567294#0 31342064#1 31342064#1.83 305495773#0 266507551 266507552#0 27202149 202070427#0 202070427#1 202070427#2 33280103#0 33280103#1 33280103#2 33280103#3 33280103#4 33280103#4.68 391208990 391029009#0 391029009#0.69 391029009#1 391029009#1.157 41425835 41425835.214 41425835.236 151167747 151167747.23 549032836 39704924 39704922 266507540 27392720 27392724 266507546 266507536 27550700 27454737 266507535 32930761 146973160 266885714 266885716 266885719 266885719.121 266885713 221257625.670 221257625.683 221257625.1565 221257625.1575" probability="0.19767275"/>
            <route cost="101844.14" edges="204388144#1 18909061#0 389831363#0 32061928#2 32061928#4 32061928#5 389840420#3 24972185#0 24972185#2 24972185#2.111 24972185#9 29048562#0 11014139#0 24991573 24991571 64464405 266567306 64464408 64464384#1 32009827 266567303 266567294#0 31342064#1 31342064#1.83 305495773#0 266507551 266507552#0 31021475 202070430 202070429#0 202070429#1 202070429#2 202070429#3 202070429#4 202070429#5 202070429#6 202070429#7 201789794#0 201789794#3 308849647 266507550 30320943 23622426 -195073412#2 -195073412#1 -195073412#0 195073415 266507536 27550700 27454737 266507535 32930761 146973160 266885714 266885716 266885719 266885719.121 266885713 221257625.670 221257625.683 221257625.1565 221257625.1575" probability="0.18639542"/>
        </routeDistribution>
    </vehicle>
    <vehicle arrivalPos="200.00" arrivalSpeed="0.00" depart="40872.00" departPos="20.49" id="h2913c2:1" type="default_010">
        <routeDistribution last="0">
            <route cost="435.14" edges="218647954 24634521#2 -24634517#12 -24634517#8 -24634517#7 -24634517#5 -24634517#3 -201963533#1 -201963533#1.120 -201963533#1.145 -201963533#0 -285549250#1 -128361102#1 128361107#0 128361107#1 449057056 378946908 128361091 379795371 378946906 128361098 -35926528#2 -35926528#1 -130185488#3 -130185488#2 -130185488#0 -136728344#5 -136728344#4 -136728344#3 -136728344#2 -136728344#0 -266561177#1 -266561177#0 -27830333#1 -27830333#0 -266561174#1 -391606911#4 -391606911#3 -391606911#2 -391606911#1 -391606911#0 -325180705#3" probability="0.57479746"/>
            <route cost="483.78" edges="218647954 24634521#2 -24634517#12 -24634517#8 -24634517#7 -24634517#5 -24634517#3 -201963533#1 -201963533#1.120 -201963533#1.145 -201963533#0 -285549250#1 -128361102#1 23623674#0 23623674#11 27998675#1 27998676#0 148529632#0 148529632#1 148529632#2 148529632#3 148529632#4 29353676#0 29353676#1 29353676#2 -24754837#0 23622520#0 -37256211 173658909 -391606911#3 -391606911#2 -391606911#1 -391606911#0 -325180705#3" probability="0.22146643"/>
            <route cost="469.39" edges="218647954 24634521#2 -24634517#12 -24634517#8 -24634517#7 -24634517#5 -24634517#3 201963533#4 201963533#5 -26642362#5 -22716072#5 -22716072#3 -18809672#1 -285549250#1 -128361102#1 128361107#0 128361107#1 449057056 378946908 128361091 379795371 378946906 128361098 -35926528#2 -35926528#1 -130185488#3 -130185488#2 -130185488#0 -136728344#5 -136728344#4 -136728344#3 -136728344#2 -136728344#0 -266561177#1 -266561177#0 -27830333#1 -27830333#0 -266561174#1 -391606911#4 -391606911#3 -391606911#2 -391606911#1 -391606911#0 -325180705#3" probability="0.15552380"/>
            <route cost="445.70" edges="218647954 24634521#2 -24634517#12 -24634517#8 -24634517#7 -24634517#5 -24634517#3 -201963533#1 -201963533#1.120 -201963533#1.145 -201963533#0 -285549250#1 -128361102#1 128361107#0 128361107#1 449057056 378946908 128361091 379795371 378946906 128361098 -35926528#2 -35926528#1 -130185488#3 -130185488#2 -130185488#0 -136728344#5 -136728344#4 -136728344#3 -136728344#2 -136728344#0 -23623717 -393420116#2 -266561174#1 -391606911#4 -391606911#3 -391606911#2 -391606911#1 -391606911#0 -325180705#3" probability="0.04820268"/>
            <route cost="531.45" edges="218647954 24634521#2 -24634517#12 -24634517#8 -24634517#7 -24634517#5 -24634517#3 -201963533#1 -201963533#1.120 -201963533#1.145 -201963533#0 -285549250#1 -128361102#1 128361107#0 128361107#1 449057056 378946908 128361091 10427555#0 392714143#0 392714143#1 35744155#0 35744155#2 35744155#3 35744155#5 201201939#0 201201939#2 201201939#3 -32062034#4 -32062034#3 188740075#1 188740075#3 40879982#1 -266561177#1 -266561177#0 -27830333#1 -27830333#0 -266561174#1 -391606911#4 -391606911#3 -391606911#2 -391606911#1 -391606911#0 -325180705#3" probability="0.00000965"/>
        </routeDistribution>
    </vehicle>
    <vehicle arrivalPos="0.00" arrivalSpeed="0.00" depart="40876.00" departPos="63.20" id="h1850c1:3" type="default_010">
        <routeDistribution last="4">
            <route cost="100830.17" edges="25187889 25145012#3 25145012#4 25145012#5 25145012#6 25145013#1 139230366 27920078#0 27920078#1 -32124745 -32124743 -32124744 -201089423#2 -201089423#1 -32999434#1 32999110#0 32999110#1 402600768#0 402600768#1 51857517#0 51857517#0.33 51857517#1 51857516#1 -266565295#5 -266565295#4 -266565295#3 -266565295#2 -266565295#1 -266565295#0 -266565299 -24977590#1 -24977590#0 -233673425#1 -233673425#0 -266567307#1 -30404124 30417892 266567308#0 64464384#1 32009827 266567303 266567294#0 31342064#1 31342064#1.83 305495773#0 266507551 266507552#0 31021475 202070430 202070429#0 202070429#1 202070429#2 202070429#3 202070429#4 202070429#5 202070429#6 202070429#7 201789794#0 201789794#3 308849647 266507550 30320943 378466167 266507548 32976755 327975020 327975024 327975024.20 327975024.51 327975019 146973189 195073416 195073418#0 195073418#1 266507539 27392718 27392719 266507541 266507544 266507534 39697946.985 39697946.1000" probability="0.22709115"/>
            <route cost="100717.45" edges="25187889 25145012#3 25145012#4 25145012#5 25145012#6 25145012#7 104010354 124812857#0 201956811#0 36689751#0 33102476 173148224#1 -137685135 -51856496#7 -51856496#5 -51856496#4 -51856496#3 -51856496#2 -51856496#1 -51856496#0 -390282481 -156923526#3 -156923526#2 -10425610#2 389831364 542617943 28418764#0 28418764#0.126 28418764#0.141 28418764#2 32350852#0 32350852#3 32350852#4 51857519#0 161678034#0 161678034#1 161678034#2 161678034#2.30 161678034#2.46 164051429#0 164051429#1 10425611#0 10425611#0.83 10425611#1 203971380 37480109 90587320 90587320.64 201926266 30482638#0 30482638#3 30482638#4 30482638#9 30482638#10 30482638#11 30482638#12 201789799#0 201789799#1 201789799#2 201789798#0 201789798#1 202070435#0 10941820 201880159#0 201880159#1 201880159#2 201789796#0.31 201789796#1 30320943 378466167 266507548 32976755 327975020 327975024 327975024.20 327975024.51 327975019 146973189 195073416 195073418#0 195073418#1 266507539 27392718 27392719 266507541 266507544 266507534 39697946.985 39697946.1000" probability="0.19818889"/>
            <route cost="100808.06" edges="25187889 25145012#3 25145012#4 22716069#2 653473569#2 653473569#3 653473569#5 164051413 104010475#0 104012170 -32124745 172488483#0 -83304175#2 -83304175#2.184 -83304175#2.204 32061928#5 389840420#3 24972185#0 24972185#2 24972185#2.111 24972185#9 29048562#0 11014139#0 24991573 24991571 64464405 266567306 64464408 64464384#1 32009827 266567303 266567294#0 31342064#1 31342064#1.83 305495773#0 266507551 266507552#0 27202149 202070427#0 202070427#1 202070427#2 33280103#0 33280103#1 33280103#2 33280103#3 33280103#4 33280103#4.68 391208990 -391208989 -391029007 -25626614#2 -25626614#1 -25626614#0 -391208991 391029010 -25623126#2 -25623126#1 25623125#2 -39698490 -39698489 -37681592#6 -37681592#5 -37681592#4 -37681592#3 -37681592#2 -37681592#1 -37681592#0 -138300617#3 138300629 306793669 146973170 -266507543 266507533 266507544 266507534 39697946.985 39697946.1000" probability="0.19216893"/>
            <route cost="102629.66" edges="25187889 25145012#3 25145012#4 22716069#2 653473569#2 653473569#3 653473569#5 164051413 104010475#0 104012170 -32124745 -32124743 -32124744 -201089423#2 -201089423#1 -32999434#1 32999110#0 32999110#1 402600768#0 402600768#1 51857517#0 51857517#0.33 51857517#1 51857516#1 -266565295#5 -266565295#4 -266565295#3 -266565295#2 -266565295#1 -266565295#0 -266565299 -24977590#1 -24977590#0 -233673425#1 -233673425#0 -266567307#1 -30404124 30417892 266567308#0 64464384#1 32009827 266567303 266567294#0 31342064#1 31342064#1.83 305495773#0 266507551 266507552#0 31021475 202070430 202070429#0 202070429#1 202070429#2 202070429#3 202070429#4 202070429#5 -28132813 -175761127#11 -175761127#9 -175761127#7 -175761127#1 -36291830 30320943 378466167 266507548 32976755 327975020 327975024 327975024.20 327975024.51 327975019 146973189 195073416 195073418#0 195073418#1 266507539 27392718 27392719 266507541 266507544 266507534 39697946.985 39697946.1000" probability="0.19199042"/>
            <route cost="100791.00" edges="25187889 25145012#3 25145012#4 22716069#2 653473569#2 653473569#3 653473569#5 164051413 104010475#0 104012170 -32124745 -32124743 -32124744 -201089423#2 -201089423#1 -32999434#1 32999110#0 32999110#1 402600768#0 402600768#1 51857517#0 51857517#0.33 51857517#1 51857516#1 -266565295#5 -266565295#4 -266565295#3 -148050451#2 -148050452#0 148050455#1 148050455#2 28639688#0 28639688#1 28639688#3 116687469#0 248012815#0 248012815#1 30399325 30399322#1.56 30399322#2 30399322#3.66 542635729 31342347 32203023#0 32203023#2 32203023#2.134 31342350#0 31342350#1 31342350#2 31342350#2.130 391208990 -391208989 -391029007 -25626614#2 -25626614#1 -25626614#0 -391208991 391029010 -25623126#2 -25623126#1 25623125#2 -39698490 -39698489 -37681592#6 -37681592#5 -37681592#4 -37681592#3 -37681592#2 -37681592#1 -37681592#0 -138300617#3 138300629 306793669 146973170 -266507543 266507533 266507544 266507534 39697946.985 39697946.1000" probability="0.19056062"/>
        </routeDistribution>
    </vehicle>
    <vehicle arrivalPos="77.20" arrivalSpeed="0.00" depart="40877.00" departPos="62.22" id="randUni33130:1" type="random_010">
        <routeDistribution last="2">
            <route cost="490.59" edges="25380714#0 25597196#4 -25596855#3 -25596861#2 -25596861#1 25640093#5 -25640098#0 60066780 110435734 -24978651 28132014#0 28132014#1 42745460 42745461#0 42745461#1 54154922#0 54154922#1 26071515#0 26071515#1 4324820 26471940#0 -164051438#2 -164051438#1 -164051438#0 -164051438#0.46 -164051438#0.62 -26471933 140834262#0 140834255#0 201953160#0 -208010459#1 -461125445 -461125446#2 -115881041#4 -115881041#3 115881041#1" probability="0.00000049"/>
            <route cost="283.38" edges="25380714#0 -25597196#3 -25597196#2 -25597196#1 42745460 42745461#0 42745461#1 54154922#0 54154922#1 26071515#0 26071515#1 4324820 164051399 201956817 33279254#1 556434727 542630099 354967545#0.45 354967545#1 -266887590#1 -266887590#0 -589179144 -266887589#2 -201926268#1 58622231#0 58622231#3 115881041#0 115881041#1" probability="0.06182079"/>
            <route cost="243.75" edges="25380714#0 -25597196#3 -25597196#2 -25597196#1 42745460 42745461#0 42745461#1 54154922#0 54154922#1 26071515#0 26071515#1 4324820 164051399 201956817 33279254#1 556434727 -201953160#4 -208010459#1 -461125445 -461125446#2 -115881041#4 -115881041#3 115881041#1" probability="0.99931953"/>
            <route cost="241.91" edges="25380714#0 -25597196#3 -25597196#2 -25597196#1 42745460 42745461#0 42745461#1 54154922#0 54154922#1 26071515#0 26071515#1 4324820 164051399 201956817 33279254#1 556434727 542630099 354967545#0.45 354967545#1 -266887590#1 -266887590#0 -589179144 118004640#0 -115881041#4 -115881041#3 115881041#1" probability="0.56264218"/>
        </routeDistribution>
    </vehicle>
    <vehicle arrivalPos="87.64" arrivalSpeed="0.00" depart="40888.00" departPos="70.70" id="h2182c1:1" type="default_010">
        <routeDistribution last="3">
            <route cost="334.83" edges="-22716549#6 -201089423#1 24693977#0 24693977#1 315392062#0 201238718#0 201238718#1 201238718#2 174800513 201201945#0 201201945#1 201201945#2 201201945#3 201201945#7 201201945#8 201089420#0 315358257#0 315358257#0.43 -315358254#1 -164078536 -201894096#8 -201894096#5 -201894096#3" probability="0.51662797"/>
            <route cost="387.66" edges="-22716549#6 -201089423#1 -32999434#1 -24634414#5 -24634414#4 -24634414#3 -24634414#2 -24634414#1 -24634414#0 23166741#2 23166741#5 201201945#0 201201945#1 201201945#2 201201945#3 201201945#7 201201945#8 201089420#0 315358257#0 315358257#0.43 -315358254#1 -164078536 -201894096#8 -201894096#5 -201894096#3" probability="0.25035297"/>
            <route cost="375.02" edges="-22716549#6 -201089423#1 -32999434#1 32999110#0 32999110#1 -315358253#3 -315358253#2 -315358253#1 -315358253#0 -315358248#1 -315358245 -202092675.36 -4942389#1 -4942389#0 -136436466 386687242 23166741#0 23166741#2 23166741#5 201201945#0 201201945#1 201201945#2 201201945#3 201201945#7 201201945#8 201089420#0 315358257#0 315358257#0.43 -315358254#1 -164078536 -201894096#8 -201894096#5 -201894096#3" probability="0.18823199"/>
            <route cost="603.66" edges="-22716549#6 201089423#2 32124744 32124743 285716192#0 285716192#0.83 201963535 -104010328 -25145012#6 -25145012#5 -22716069#1 -22716069#0 -233675413#1 -233675413#0 -136728347#4 -201963533#5 -201963533#4 -201963533#1 -201963533#1.120 -201963533#1.145 -201963533#0 -285549250#1 -128361102#1 128361107#0 128361107#1 449057056 378946908 128361091 10427555#0 392714143#0 392714143#1 35744155#0 35744155#2 35744155#3 35744155#5 201201939#0 201201939#2 201201939#3 -32062034#4 -32062034#3 -32062034#0 -80518321 -136888519#1 -136888519#0 133765794#0 77414799#2 77414799#3 138396239#1 77414807#0 -137672872 -611319827 23622271#0 23622271#3 23622271#6 320733908 320733910#2 320733909#1 -201894096#8 -201894096#5 -201894096#3" probability="0.04259850"/>