<routes >
    <vType color="red" id="default_008" vClass="passenger"/>
    <vType color="blue" id="random_008" vClass="passenger"/>
    <vehicle arrivalPos="0.00" arrivalSpeed="0.00" depart="34032.00" departPos="56.12" id="h4236c1:1" type="default_008">
        <routeDistribution last="4">
            <route cost="100626.95" edges="148050453#0 -148050456 -148050448#0 -266565295#1 -266565295#0 -266565299 -24977590#1 -24977590#0 -233673425#1 -233673425#0 -266567307#1 -30404124 30417892 266567308#0 64464384#1 32009827 266567303 266567294#0 31342064#1 31342064#1.83 305495773#0 266507551 266507552#0 31021475 202070430 202070429#0 202070429#1 202070429#2 202070429#3 202070429#4 202070429#5 202070429#6 202070429#7 -149045269#4 -149045269#2 -149045269#1 gneE136 -25596851#6 -25596851#5 -25596851#4 -151167720#1 -151167720#0 201789799#2 201789798#0 201789798#1 202070435#0 202070435#1 202070435#2 202070435#5 202070435#5.37 202070435#5.70 202070435#9 202070435#12 202070435#13 40059576#0 40059576#1 54154971 146973236#0 146973236#1 146973236#2 146973236#5 146973236#6" probability="0.20076170"/>
            <route cost="100604.06" edges="148050453#0 -148050456 -148050448#0 -266565295#1 -266565295#0 -266565299 -24977590#1 -24977590#0 -233673425#1 -233673425#0 -266567307#1 -30404124 30417892 266567308#0 64464384#1 32009827 266567303 24971737#0 24971737#3 -32199989#1 -32199989#0 -32199969#5 -32199969#4 -32199969#1 -164051410#1 24989879 25597196#0 25597196#2 25597196#3 25597196#4 25595895#0 25595895#1 30482638#3 25640150 -92026769#12 -92026769#11 -92026769#5 -92026769#3 -92026769#2 -92026769#1 -92026769#0 -25895947#1 -25895947#0 202070435#2 202070435#5 202070435#5.37 202070435#5.70 202070435#9 202070435#12 202070435#13 40059576#0 40059576#1 54154971 146973236#0 146973236#1 146973236#2 146973236#5 146973236#6" probability="0.20005940"/>
            <route cost="100557.83" edges="148050453#0 -148050456 -148050448#0 -266565295#1 -266565295#0 -266565299 -24977590#1 -24977590#0 -233673425#1 -233673425#0 -266567307#1 -30404124 30417892 266567308#0 64464384#1 32009827 266567303 24971737#0 24971737#3 -32199989#1 -32199989#0 -32199969#5 -32199969#4 -32199969#1 -164051410#1 24989879 25597196#0 25597196#2 25597196#3 -25380714#1 30482638#0 30482638#3 30482638#4 30482638#9 30482638#10 30482638#11 30482638#12 201789799#0 201789799#1 201789799#2 201789798#0 201789798#1 202070435#0 202070435#1 202070435#2 202070435#5 202070435#5.37 202070435#5.70 202070435#9 202070435#12 202070435#13 40059576#0 40059576#1 54154971 146973236#0 146973236#1 146973236#2 146973236#5 146973236#6" probability="0.19998385"/>
            <route cost="100597.83" edges="148050453#0 -148050456 -148050448#0 -266565295#1 -266565295#0 -266565299 -24977590#1 -24977590#0 -233673425#1 -233673425#0 -266567307#1 -30404124 30417892 266567308#0 64464384#1 32009827 266567303 24971737#0 24971737#3 -32199989#1 -32199989#0 -32199969#5 -32199969#4 -32199969#1 -164051410#1 24989879 25597196#0 25597196#2 25597196#3 25597196#4 25597196#5 25597196#6 25597196#7 25597196#10 -25573246#1 -25573246#0 30482638#12 201789799#0 201789799#1 201789799#2 201789798#0 201789798#1 202070435#0 202070435#1 202070435#2 202070435#5 202070435#5.37 202070435#5.70 202070435#9 202070435#12 202070435#13 40059576#0 40059576#1 54154971 146973236#0 146973236#1 146973236#2 146973236#5 146973236#6" probability="0.19962922"/>
            <route cost="100709.32" edges="148050453#0 148050453#2 -148050447#0 306431310#1 148050455#0 148050455#1 148050455#2 28639688#0 28639688#1 28639688#3 116687469#0 248012815#0 248012815#1 30399325 30399322#1.56 30399322#2 30399322#3.66 542635729 31342347 32203023#0 32203023#2 32203023#2.134 31342350#0 31342350#1 31342350#2 31342350#2.130 391208990 391029009#0 391029009#0.69 391029009#1 391029009#1.157 41425835 41425835.214 41425835.236 151167747 151167747.23 39704923 266507553 48395120#0 48395120#1 32976755 327975020 327975024 327975024.20 327975024.51 327975019 28132017 32976751 32976751.35 146973222 39577538 306793671 157305700#0 157305700#1 157305700#2 157305700#3 157305700#4 40059576#1 54154971 146973236#0 146973236#1 146973236#2 146973236#5 146973236#6" probability="0.19956583"/>
        </routeDistribution>
    </vehicle>
    <vehicle arrivalPos="0.00" arrivalSpeed="0.00" depart="34034.00" departPos="104.34" id="h2189c1:1" type="default_008">
        <routeDistribution last="3">
            <route cost="101132.26" edges="-22879845 -23436553#4 -22690205#3 -22690205#2 -22690205#1 233675413#4 -25145011#2 25145012#6 25145012#7 104010354 124812857#0 201956811#0 36689751#0 33102476 173148224#1 -137685135 -51856496#7 -51856496#5 -51856496#4 -51856496#3 -51856496#2 -51856496#1 -51856496#0 -390282481 -156923526#3 -156923526#2 -10425610#2 389831364 542617943 28418764#0 28418764#0.126 28418764#0.141 28418764#2 32350852#0 32350852#3 32350852#4 -161678033#0 -24983010#2 -24983010#0 26973015 -145069303#4 -145069303#3 -145069303#1 -145069303#0 11014139#0 24991573 24991571 64464405 266567306 64464408 64464384#1 32009827 266567303 266567294#0 31342064#1 31342064#1.83 31894763#0 137463475#0 116765457#0 116765457#1 28132014#0 28132014#1 25597196#0 25597196#2 25597196#3 25597196#4 25597196#5 25597196#6 -153692837#3 gneE134 -481432711 -41139095 -25596851#6 -25596851#5 -25596851#4 -25596851#3 -25596851#2 -25596851#1 -25596851#0 201880159#1 201880159#2 201789796#0.31 201789796#1 30320943 378466167 266507548 32976755 327975020 327975024 327975024.20 327975024.51 327975019 28132017 32976751 32976751.35 306793670#0 306793670#1" probability="0.23606953"/>
            <route cost="100729.69" edges="-22879845 -23436553#4 -22690205#3 -22690205#2 -22690205#1 233675413#4 233675413#7 -25145013#1 -25145013#0 653473569#5 164051413 124812857#0 201956811#0 36689751#0 33102476 173148224#1 -137685135 -51856496#7 -51856496#5 -51856496#4 -51856496#3 -51856496#2 -51856496#1 -51856496#0 -390282481 -156923526#3 -156923526#2 -10425610#2 389831364 542617943 28418764#0 28418764#0.126 28418764#0.141 28418764#2 32350852#0 32350852#3 32350852#4 51857519#0 161678034#0 161678034#1 161678034#2 161678034#2.30 161678034#2.46 164051429#0 164051429#1 10425611#0 10425611#0.83 10425611#1 203971380 37480109 90587320 90587320.64 201926266 30482638#0 30482638#3 30482638#4 30482638#9 30482638#10 30482638#11 30482638#12 201789797#0 201789797#1 gneE143 149045269#0 149045269#2 149045269#3 201789794#0 201789794#3 308849647 266507550 30320943 378466167 266507548 32976755 327975020 327975024 327975024.20 327975024.51 327975019 28132017 32976751 32976751.35 306793670#0 306793670#1" probability="0.19688868"/>
            <route cost="100777.27" edges="-22879845 -23436553#4 -22690205#3 -22690205#2 -22690205#1 233675413#4 233675413#7 -25145013#1 -25145013#0 653473569#5 164051413 124812857#0 201956811#0 36689751#0 33102476 173148224#1 -137685135 -51856496#7 -51856496#5 -51856496#4 -51856496#3 -51856496#2 -51856496#1 -51856496#0 -390282481 -156923526#3 -156923526#2 -10425610#2 389831364 542617943 28418764#0 28418764#0.126 28418764#0.141 28418764#2 32350852#0 32350852#3 32350852#4 51857519#0 161678034#0 161678034#1 161678034#2 161678034#2.30 161678034#2.46 164051429#0 164051429#1 10425611#0 10425611#0.83 10425611#1 203971380 37480109 90587320 90587320.64 201926266 30482638#0 30482638#3 25640150 -92026769#12 -92026769#11 -92026769#5 -92026769#3 -92026769#2 -92026769#1 -92026769#0 -25895947#1 -25895947#0 202070435#2 202070435#5 202070435#5.37 202070435#5.70 202070435#9 202070435#12 202070435#13 40059576#0 -157305700#5 -157305700#3 -157305700#2 -157305700#1 -157305700#0 -306793671 -39577538 39577537 306793670#1" probability="0.19365202"/>
            <route cost="100953.64" edges="-22879845 -23436553#4 -22690205#3 -22690205#2 -22690205#1 233675413#4 233675413#7 -25145013#1 -25145013#0 653473569#5 164051413 124812857#0 201956811#0 36689751#0 33102476 173148224#1 -137685135 -51856496#7 -51856496#5 -51856496#4 -51856496#3 -51856496#2 -51856496#1 -51856496#0 -390282481 -156923526#3 -156923526#2 -10425610#2 389831364 542617943 28418764#0 28418764#0.126 28418764#0.141 28418764#2 32350852#0 32350852#3 32350852#4 51857519#0 161678034#0 161678034#1 161678034#2 161678034#2.30 161678034#2.46 164051429#0 164051429#1 10425611#0 10425611#0.83 10425611#1 203971380 37480109 90587320 90587320.64 201926266 30482638#0 30482638#3 30482638#4 30482638#9 30482638#10 30482638#11 30482638#12 201789799#0 201789799#1 201789799#2 201789798#0 201789798#1 202070435#0 10941820 201880159#0 201880159#1 201880159#2 201789796#0.31 201789796#1 30320943 378466167 266507548 32976755 327975020 327975024 327975024.20 327975024.51 327975019 28132017 32976751 32976751.35 306793670#0 306793670#1" probability="0.18837665"/>
            <route cost="100741.28" edges="-22879845 -23436553#4 -22690205#3 -22690205#2 -22690205#1 233675413#4 233675413#7 -25145013#1 -25145013#0 653473569#5 164051413 124812857#0 201956811#0 36689751#0 33102476 173148224#1 -137685135 -51856496#7 -51856496#5 -51856496#4 -51856496#3 -51856496#2 -51856496#1 -51856496#0 -390282481 -156923526#3 -156923526#2 -10425610#2 389831364 542617943 28418764#0 28418764#0.126 28418764#0.141 28418764#2 32350852#0 32350852#3 32350852#4 51857519#0 161678034#0 161678034#1 161678034#2 161678034#2.30 161678034#2.46 164051429#0 164051429#1 10425611#0 10425611#0.83 10425611#1 203971380 37480109 90587320 90587320.64 201926266 30482638#0 30482638#3 30482638#4 30482638#9 30482638#10 30482638#11 30482638#12 201789799#0 201789799#1 201789799#2 201789798#0 201789798#1 202070435#0 202070435#1 202070435#2 202070435#5 202070435#5.37 202070435#5.70 202070435#9 202070435#12 202070435#13 40059576#0 -157305700#5 -157305700#3 -157305700#2 -157305700#1 -157305700#0 -306793671 -39577538 39577537 306793670#1" probability="0.18501312"/>
        </routeDistribution>
    </vehicle>
    <vehicle arrivalPos="230.00" arrivalSpeed="0.00" depart="34038.00" departPos="17.93" id="h1140c1:3" type="default_008">
        <routeDistribution last="2">
            <route cost="684.74" edges="33697953 156816469 145069270#2 145069298 145069336#2 145069280#0 145069373#0 145069294#0 32201042 32201044#0 32201044#1 32201044#2 233673423 28418763 -379723624#1 -379723624#0 -32923867#4 -32923867#3 -32923867#2 -32923867#1 -32923867#0 130996520 130996520.58 172519650 306396705 174321447 58295043 32923863#2 266607804#0 266607804#1 266607804#2 266607803#0 266607803#1 266607803#2 266607792#0 266607792#5 200949176#0 200949176#1 116765451#0 116765451#3 390835794#0 390835794#1 266607799 168249926#0 168249926#1 -207091116#1 25375417#0 25375417#6 25375417#7 25375417#8 25375417#9 25375417#10 25375417#11 25375417#12 -25375814#1 233673410#6 266607801#0 266607801#1 266607802#0 266607802#1 266607795#0 266607795#1 266607795#6 266607800#0 -200908888#2 -200908888#0 -201243223 21224506#0 21224506#1 41494424#0 233673422#0 233673422#2 233673422#4 233673422#5 233673422#7 233673422#9" probability="0.26622900"/>
            <route cost="670.73" edges="33697953 156816469 145069270#2 145069298 145069336#2 145069280#0 145069373#0 145069294#0 32201042 32201044#0 32201044#1 32201044#2 233673423 28418763 -379723624#1 -379723624#0 -32923867#4 -32923867#3 -32923867#2 -32923867#1 -32923867#0 130996520 130996520.58 172519650 306396705 174321447 58295043 32923863#2 266607804#0 266607804#1 266607804#2 266607803#0 266607803#1 266607803#2 266607792#0 266607792#5 200949176#0 200949176#1 116765451#0 116765451#3 390835794#0 390835794#1 266607799 168249926#0 168249926#1 -207091116#1 25375417#0 25375417#6 25375417#7 60100821#1 60100821#4 201243230#0 201243230#1 233673410#0 233673410#1 233673410#5 233673410#6 266607801#0 266607801#1 266607802#0 266607802#1 266607795#0 266607795#1 266607795#6 266607800#0 201243226#0 266607805#0 266607805#1 41494424#0 233673422#0 233673422#2 233673422#4 233673422#5 233673422#7 233673422#9" probability="0.19608338"/>
            <route cost="672.55" edges="33697953 156816469 145069270#2 145069298 145069336#2 145069280#0 145069373#0 145069294#0 32201042 32201044#0 32201044#1 32201044#2 233673423 28418763 -379723624#1 -379723624#0 -32923867#4 -32923867#3 -32923867#2 -32923867#1 -32923867#0 130996520 130996520.58 172519650 306396705 174321447 58295043 32923863#2 266607804#0 266607804#1 266607804#2 266607803#0 266607803#1 266607803#2 266607792#0 266607792#5 200949176#0 200949176#1 116765451#0 116765451#3 390835794#0 390835794#1 266607799 168249926#0 168249926#1 -207091116#1 25375417#0 25375417#6 25375417#7 25375417#8 25375417#9 25375417#10 25375417#11 25375417#12 -25375814#1 233673410#6 266607801#0 266607801#1 266607802#0 266607802#1 266607795#0 266607795#1 266607795#6 266607800#0 201243226#0 266607805#0 266607805#1 41494424#0 233673422#0 233673422#2 233673422#4 233673422#5 233673422#7 233673422#9" probability="0.19402201"/>
            <route cost="684.50" edges="33697953 156816469 145069270#2 145069298 145069336#2 145069280#0 145069373#0 145069294#0 32201042 32201044#0 32201044#1 32201044#2 233673423 28418763 -379723624#1 -379723624#0 -32923867#4 -32923867#3 -32923867#2 -32923867#1 -32923867#0 130996520 130996520.58 172519650 306396705 174321447 58295043 32923863#2 266607804#0 266607804#1 266607804#2 266607803#0 266607803#1 266607803#2 266607792#0 266607792#5 200949176#0 200949176#1 116765451#0 116765451#3 390835794#0 390835794#1 266607799 168249926#0 168249926#1 29027936#0 29027936#1 233673413#0 233673413#1 207091130 207091132#0 207091132#1 207091132#2 42508858#0 42508858#1 25375417#7 25375417#8 25375417#9 25375417#10 25375417#11 25375417#12 -25375814#1 233673410#6 266607801#0 266607801#1 266607802#0 266607802#1 266607795#0 266607795#1 266607795#6 266607800#0 201243226#0 266607805#0 266607805#1 41494424#0 233673422#0 233673422#2 233673422#4 233673422#5 233673422#7 233673422#9" probability="0.17436175"/>
            <route cost="679.09" edges="33697953 156816469 145069270#2 145069298 145069336#2 145069280#0 145069373#0 145069294#0 32201042 32201044#0 32201044#1 32201044#2 233673423 28418763 -379723624#1 -379723624#0 -32923867#4 -32923867#3 -32923867#2 -32923867#1 -32923867#0 130996520 130996520.58 172519650 306396705 174321447 58295043 32923863#2 266607804#0 266607804#1 266607804#2 266607803#0 266607803#1 266607803#2 266607792#0 266607792#5 200949176#0 200949176#1 116765451#0 116765451#3 390835794#0 390835794#1 266607799 168249926#0 168249926#1 29027936#0 29027936#1 233673413#0 233673413#1 207091130 207091132#0 207091132#1 207091132#2 207091132#3 207091132#4 266607796 266607798 233673420#0 233673420#1 201243230#0 201243230#1 233673410#0 233673410#1 233673410#5 233673410#6 266607801#0 266607801#1 266607802#0 266607802#1 266607795#0 266607795#1 266607795#6 266607800#0 201243226#0 266607805#0 266607805#1 41494424#0 233673422#0 233673422#2 233673422#4 233673422#5 233673422#7 233673422#9" probability="0.16930386"/>
        </routeDistribution>
    </vehicle>
    <vehicle arrivalPos="200.00" arrivalSpeed="0.00" depart="34044.00" departPos="13.32" id="h3932c2:1" type="default_008">
        <routeDistribution last="0">
            <route cost="527.64" edges="32124637#1 168702040#1 168702040#2 168702040#3 168702040#4 168702039#0 168702039#1 32999434#0 24693977#0 24693977#1 315392062#0 -160314346#1 -160314346#0 24634505 24634510#0 24634510#1 24634510#6 24634510#7 24634510#9 24634510#16 201238726#0 201238726#0.117 201238726#1 201238729#1 201238729#2 201238729#3 201238729#5 201238729#6 138002148 128361091 379795371 378946906 128361098 -35926528#2 -35926528#1 -130185488#3 -130185488#2 -130185488#0 -136728344#5 -136728344#4 -136728344#3 -136728344#2 -136728344#0 -266561177#1 -266561177#0 -27830333#1 -27830333#0 -266561174#1 -391606911#4 -391606911#3 -391606911#2 -391606911#1 -391606911#0 -325180705#3" probability="0.51262202"/>
            <route cost="516.88" edges="32124637#1 168702040#1 168702040#2 168702040#3 168702040#4 -315358253#3 -315358253#2 -315358253#1 -315358253#0 -315358248#1 -315358245 -202092675.36 -4942389#1 -4942389#0 -136436466 386687242 23166741#0 23166741#2 23166741#5 201201953#0 201201953#2 201201953#4 201201953#10 201201953#12 176550246 201238729#1 201238729#2 201238729#3 201238729#5 201238729#6 138002148 128361091 379795371 378946906 128361098 -35926528#2 -35926528#1 -130185488#3 -130185488#2 -130185488#0 -136728344#5 -136728344#4 -136728344#3 -136728344#2 -136728344#0 -266561177#1 -266561177#0 -27830333#1 -27830333#0 -266561174#1 -391606911#4 -391606911#3 -391606911#2 -391606911#1 -391606911#0 -325180705#3" probability="0.19037910"/>
            <route cost="531.04" edges="32124637#1 168702040#1 168702040#2 168702040#3 168702040#4 168702039#0 168702039#1 32999434#0 24693977#0 24693977#1 315392062#0 -160314346#1 -160314346#0 24634505 24634510#0 24634510#1 24634510#6 24634510#7 24634510#9 24634510#16 201238726#0 201238726#0.117 201238726#1 201238729#1 201238729#2 201238729#3 201238729#5 201238729#6 138002148 128361091 379795371 378946906 128361098 -35926528#2 -35926528#1 -130185488#3 -130185488#2 -130185488#0 -136728344#5 -136728344#4 -136728344#3 -136728344#2 -136728344#0 -23623717 -393420116#2 -266561174#1 -391606911#4 -391606911#3 -391606911#2 -391606911#1 -391606911#0 -325180705#3" probability="0.16647931"/>
            <route cost="564.43" edges="32124637#1 168702040#1 168702040#2 -24608846#1 -24608846#0 -160314345#5 -160314345#4 -160314345#3 -160314345#2 -160314345#1 -160314345#0 -160314346#1 -160314346#0 24634505 24634510#0 24634510#1 24634510#6 24634510#7 24634510#9 24634510#16 201238726#0 201238726#0.117 201238726#1 201238729#1 201238729#2 201238729#3 201238729#5 201238729#6 138002148 128361091 379795371 378946906 128361098 -35926528#2 -35926528#1 -130185488#3 -130185488#2 -130185488#0 -136728344#5 -136728344#4 -136728344#3 -136728344#2 -136728344#0 -266561177#1 -266561177#0 -27830333#1 -27830333#0 -266561174#1 -391606911#4 -391606911#3 -391606911#2 -391606911#1 -391606911#0 -325180705#3" probability="0.11933203"/>
            <route cost="616.89" edges="32124637#1 168702040#1 168702040#2 168702040#3 168702040#4 -315358253#3 -315358253#2 -315358253#1 -315358253#0 -315358248#1 -315358245 -202092675.36 -4942389#1 -4942389#0 -136436466 386687242 23166741#0 23166741#2 23166741#5 201201945#0 201201945#1 201201945#2 201201945#3 201201945#7 201201945#8 201089420#0 315358257#0 315358257#0.43 -315358255#4 -286646456#2 -286646456#0 -224251774#1 -224251774#0 224251776#0 306240162#0 306240162#4 148352067 193806654 193806654.200 193806654.211 193806654.258 193806654.273 148351766 220013328 139429268 320733893 4396674#0 4396674#1 125002584#0 125002584#2 297778952 314970097 314970098#0 gneE9 305397289#1 379795390#2 379795389 391606915 161783479#0 -320733897#1 gneE6 161783478#0 161783478#1 26320091 8033475#0 148596540#0 37255672 136728353 -131724119#5 -131724119#3 -131724119#2 -131724119#1 -131724119#0 -392714149 -37255681#4 -37255681#3 -37255681#2 -37255681#1 -325180705#3" probability="0.01118752"/>
        </routeDistribution>
    </vehicle>
    <vehicle arrivalPos="230.00" arrivalSpeed="0.00" depart="34045.00" departPos="3.72" id="h20557c1:1" type="default_008">
        <routeDistribution last="0">
            <route cost="548.87" edges="200946853 54033673#0 54033673#0.28 54033673#2 54033673#3 29458645 29458645.65 29458645.81 37282738 103718186 20975950#0 20975950#1 -20975942#2 20975952#0 20975952#1 20975952#2 -28269810#1 -163586462 -4819338#4 -4819338#3 -4819338#1 -4819338#0 266607803#0 266607803#1 266607803#2 266607792#0 266607792#5 200949176#0 200949176#1 116765451#0 116765451#3 -39444740#6 -201078448#1 -10597455#2 201078447#0 201078447#3 39444748#0 39444748#1 39444748#4 39444748#5 39444748#8 201243230#0 201243230#1 233673410#0 233673410#1 233673410#5 233673410#6 266607801#0 266607801#1 266607802#0 266607802#1 266607795#0 266607795#1 266607795#6 266607800#0 201243226#0 266607805#0 266607805#1 41494424#0 233673422#0 233673422#2 233673422#4 233673422#5 233673422#7 233673422#9" probability="0.24797878"/>
            <route cost="528.97" edges="200946853 54033673#0 54033673#0.28 54033673#2 54033673#3 29458645 29458645.65 29458645.81 37282738 103718186 20975950#0 20975950#1 -20975942#2 -20975942#1 20975954#0 20975954#1 28269810#4 30482619 -205182378#7 -205182378#6 -205182378#5 -205182378#4 -205182378#3 -205182378#2 -205182378#0 -32530108#5 -32530108#2 -32530108#1 -390842192#4 -390842192#3 -390842192#1 -141058755#4 -141058755#1 -141058755#0 -51262567#1 22603944#0 22603945#0 22603945#1.135 22603945#1.145 55600044#0 55600044#1 55600044#2 61671904 -51872706 -51872707 -28124854#0 -51872703 -32881185#1 41494424#0 233673422#0 233673422#2 233673422#4 233673422#5 233673422#7 233673422#9" probability="0.19981336"/>
            <route cost="550.17" edges="200946853 54033673#0 54033673#0.28 54033673#2 54033673#3 29458645 29458645.65 29458645.81 37282738 103718186 20975950#0 -168245119#2 23184317 29458101 27893434#1 27893434#2 174321447 58295043 32923863#2 266607804#0 266607804#1 266607804#2 266607803#0 266607803#1 266607803#2 266607792#0 266607792#5 200949176#0 200949176#1 116765451#0 116765451#3 390835794#0 390835794#1 266607799 168249926#0 168249926#1 -207091116#1 25375417#0 25375417#6 25375417#7 25375417#8 25375417#9 25375417#10 25375417#11 25375417#12 -25375814#1 233673410#6 266607801#0 266607801#1 266607802#0 266607802#1 266607795#0 266607795#1 266607795#6 266607800#0 -200908888#2 -200908888#0 -201243223 -21966650#2 -21966650#0 54606432#7 54606432#8 54606432#9 233673422#7 233673422#9" probability="0.18834956"/>
            <route cost="529.06" edges="200946853 54033673#0 54033673#0.28 54033673#2 54033673#3 29458645 29458645.65 29458645.81 37282738 103718186 20975950#0 20975950#1 -20975942#2 -20975942#1 20975954#0 20975954#1 28269810#4 30482619 -205182378#7 -205182378#6 -205182378#5 -205182378#4 -205182378#3 -205182378#2 -205182378#0 -32530108#5 -32530108#2 -32530108#1 32530113#0 21224504#0 21224504#1 21224504#2 21224504#3 21224504#4 -201286890#5 -201286890#3 -201286890#2 -201286890#1 -201286890#0 -51872702 -41494423#1 -51872706 -51872707 -28124854#0 -51872703 -32881185#1 41494424#0 233673422#0 233673422#2 233673422#4 233673422#5 233673422#7 233673422#9" probability="0.18484379"/>
            <route cost="560.43" edges="200946853 54033673#0 54033673#0.28 54033673#2 54033673#3 29458645 29458645.65 29458645.81 37282738 103718186 20975950#0 -168245119#2 23184317 29458101 27893434#1 27893434#2 174321447 58295043 32923863#2 266607804#0 266607804#1 266607804#2 266607803#0 266607803#1 266607803#2 266607792#0 266607792#5 200949176#0 200949176#1 116765451#0 116765451#3 390835794#0 390835794#1 266607799 168249926#0 168249926#1 -207091116#1 25375417#0 25375417#6 25375417#7 25375417#8 25375417#9 25375417#10 25375417#11 25375417#12 -25375814#1 233673410#6 266607801#0 266607801#1 266607802#0 266607802#1 266607795#0 266607795#1 266607795#6 266607800#0 -200908888#2 -200908888#0 -201243223 21224506#0 21224506#1 41494424#0 233673422#0 233673422#2 233673422#4 233673422#5 233673422#7 233673422#9" probability="0.17901451"/>
        </routeDistribution>
    </vehicle>
    <vehicle arrivalPos="22.22" arrivalSpeed="0.00" depart="34048.00" departPos="82.35" id="randUni33935:1" type="random_008">
        <routeDistribution last="1">
            <route cost="226.45" edges="53898183 -25665446#1 -25665446#0 53396623#0 53396623#1 -54828620 -25665537#1 -10425532#5 -447569998#1 -447569997#0 129379918#0 -40888351#6 -40888351#2 -40888351#0 -201950250#2 -201950250#1 -26677540#2" probability="0.18136604"/>
            <route cost="204.56" edges="53898183 25665446#2 54169280#4 54169280#6 386687232#0 386687242 23166741#0 -40888350 -201950247#6 -201950247#5 -201950247#4 -201950247#3 -201950247#2 -201950247#1 -201950247#0 -201950250#2 -201950250#1 -26677540#2" probability="0.28946280"/>
            <route cost="206.07" edges="53898183 25665446#2 54169280#4 54169280#6 386687232#0 -315358251#1 -315358251#0 -315358242#2 -315358242#1 -315358242#0 -129379925 -40888351#6 -40888351#2 -40888351#0 -201950250#2 -201950250#1 -26677540#2" probability="0.24405380"/>
            <route cost="208.38" edges="53898183 25665446#2 54169280#4 54169280#6 272042143 23166741#0 -40888350 -201950247#6 -201950247#5 -201950247#4 -201950247#3 -201950247#2 -201950247#1 -201950247#0 -201950250#2 -201950250#1 -26677540#2" probability="0.22822071"/>
            <route cost="229.79" edges="53898183 -25665446#1 -25665446#0 53396623#0 53396623#1 -54828620 -25665537#1 -10425532#5 -447569998#1 -447569997#0 129379918#0 -40888351#6 -26677416#7 26677539 -201950250#1 -26677540#2" probability="0.05689663"/>
        </routeDistribution>
    </vehicle>
    <vehicle arrivalPos="0.00" arrivalSpeed="0.00" depart="34051.00" departPos="19.43" id="h12148c2:1" type="default_008">
        <routeDistribution last="1">
            <route cost="27859.28" edges="-202070429#3 -202070429#2 -202070429#1 -202070429#0 151167728 26451152#0 202070427#0 25796375#0 25796375#1 25796375#2 25796388 gneE147 -144657087#5 -144657087#4 -144657087#3 -26176225#5 -26176225#4 -26176225#3 -26176225#2 -26176225#1 -26176225#0 274823622#2 25895966#0 25895966#6 29238188#3 152077572#0 152077572#2 152077572#2.79 54858974 542727960 30399316#0 30399316#0.52 30399316#2 51745097#0 51745097#1 4942660 -4942659#1 24537805#0 64442509#0 128070690 306240160#0 306240160#1 128070667#0 128070667#1 128070665#0 128070665#1 542730346#0 542730346#1 192768914 194377108#0 194377108#0.135 194377108#1 30131200#0 30131200#1 30131201#0 30131201#1 gneE150 gneE150.157 gneE153 gneE178" probability="0.26839945"/>
            <route cost="27801.60" edges="-202070429#3 -202070429#2 -202070429#1 -202070429#0 151167728 26451152#0 202070427#0 202070427#1 202070427#2 33280103#0 71900674#0 71900674#1 25895864#0 25895864#1 26176223#0 26176223#1 -144657087#1 61326427#0 -274823622#0 -274823622#0.68 -31342351#1 23009600#0 23009600#2 153220338#0 153220338#2 51745097#0 51745097#1 4942660 -4942659#1 24537805#0 64442509#0 128070690 306240160#0 306240160#1 128070667#0 128070667#1 128070665#0 128070665#1 542730346#0 542730346#1 192768914 194377108#0 194377108#0.135 194377108#1 30131200#0 30131200#1 30131201#0 30131201#1 gneE150 gneE150.157 gneE153 gneE178" probability="0.19492458"/>
            <route cost="27829.05" edges="-202070429#3 -202070429#2 -202070429#1 -202070429#0 151167728 26451152#0 202070427#0 25796375#0 25796375#1 25796375#2 25638527 32202927#0 32202927#1 32202927#2 137463478#2 137463478#3 29238188#0 29238188#1 29238188#3 152077572#0 152077572#2 152077572#2.79 54858974 542727960 30399316#0 30399316#0.52 30399316#2 51745097#0 51745097#1 4942660 -4942659#1 24537805#0 64442509#0 128070690 306240160#0 306240160#1 128070667#0 128070667#1 128070665#0 128070665#1 542730346#0 542730346#1 192768914 194377108#0 194377108#0.135 194377108#1 30131200#0 30131200#1 30131201#0 30131201#1 gneE150 gneE150.157 gneE153 gneE178" probability="0.18798063"/>
            <route cost="27829.75" edges="-202070429#3 -202070429#2 -202070429#1 -202070429#0 151167728 26451152#0 202070427#0 25796375#0 25796375#1 25796375#2 25796388 32202763 -25638529 25895961 -274823622#3 25895966#0 25895966#6 29238188#3 152077572#0 152077572#2 152077572#2.79 54858974 542727960 30399316#0 30399316#0.52 30399316#2 51745097#0 51745097#1 4942660 -4942659#1 24537805#0 64442509#0 128070690 306240160#0 306240160#1 128070667#0 128070667#1 128070665#0 128070665#1 542730346#0 542730346#1 192768914 194377108#0 194377108#0.135 194377108#1 30131200#0 30131200#1 30131201#0 30131201#1 gneE150 gneE150.157 gneE153 gneE178" probability="0.18174182"/>
            <route cost="27909.99" edges="-202070429#3 -202070429#2 25596861#0 25640093#5 25640093#6 25640093#7 115082348#3 115082348#4 257907858#0 27202149 202070427#0 25796375#0 25796375#1 25796375#2 25638527 32202927#0 32202927#1 32202927#2 137463478#2 137463478#3 29238188#0 29238188#1 29238188#3 152077572#0 152077572#2 152077572#2.79 54858974 542727960 30399316#0 30399316#0.52 30399316#2 51745097#0 51745097#1 4942660 -4942659#1 24537805#0 64442509#0 128070690 306240160#0 306240160#1 128070667#0 128070667#1 128070665#0 128070665#1 542730346#0 542730346#1 192768914 194377108#0 194377108#0.135 194377108#1 30131200#0 30131200#1 30131201#0 30131201#1 gneE150 gneE150.157 gneE153 gneE178" probability="0.16695351"/>
        </routeDistribution>
    </vehicle>
    <vehicle arrivalPos="0.00" arrivalSpeed="0.00" depart="34051.00" departPos="231.36" id="h13764c1:1" type="default_008">
        <routeDistribution last="4">
            <route cost="100539.14" edges="25640093#3 153692837#1 153692837#2 153692837#3 -25597196#6 -25597196#5 -25597196#4 -25597196#3 -25597196#2 -25597196#1 -28132014#2 -28132014#0 24978651 115082348#0 115082348#1 115082348#3 115082348#4 257907858#0 27202149 202070427#0 202070427#1 202070427#2 33280103#0 33280103#1 33280103#2 33280103#3 33280103#4 33280103#4.68 391208990 -391208989 -391029007 -25626614#2 -25626614#1 -25626614#0 -391208991 391029010 -25623126#2 -25623126#1 25623125#2 -39698490 -39698489 -37681592#6 -37681592#5 -37681592#4 -37681592#3 -37681592#2 -37681592#1 -37681592#0 138300617#4 138300617#5 -39577540 -39577538 39577537 306793670#1" probability="0.22646653"/>
            <route cost="100315.00" edges="25640093#3 153692837#1 153692837#2 153692837#3 25597196#7 25597196#10 25597196#12 -201789797#0 201789799#0 201789799#1 201789799#2 201789798#0 201789798#1 202070435#0 202070435#1 202070435#2 202070435#5 202070435#5.37 202070435#5.70 202070435#9 202070435#12 202070435#13 40059576#0 -157305700#5 -157305700#3 -157305700#2 -157305700#1 -157305700#0 -306793671 -39577538 39577537 306793670#1" probability="0.19693612"/>