<routes >
    <vType color="red" id="default_019" vClass="passenger"/>
    <vType color="blue" id="random_019" vClass="passenger"/>
    <vehicle arrivalPos="60.61" arrivalSpeed="0.00" depart="63846.00" departPos="5.87" id="randUni32452:1" type="random_019">
        <routeDistribution last="0">
            <route cost="3338.09" edges="266567294#0 25797090#1 201444272#0 201444272#1 24846867#0 24846867#1 24846867#3" probability="0.99999986"/>
            <route cost="7588.22" edges="266567294#0 31342064#1 31342064#1.83 25902677#0 137463478#0 137463478#1 137463478#2 29238187#0 25797084#0 25797084#1 25797084#2 24846867#3" probability="0.00000014"/>
        </routeDistribution>
    </vehicle>
    <vehicle arrivalPos="0.00" arrivalSpeed="0.00" depart="63848.00" departPos="30.42" id="h4167c1:1" type="default_019">
        <routeDistribution last="1">
            <route cost="108099.17" edges="-306431310#0 148050456 -148050453#1 -266565295#0 -266565299 -24977590#1 -24977590#0 -233673425#1 -233673425#0 -266567307#1 -30404124 30417892 266567308#0 64464384#1 32009827 266567303 266567294#0 31342064#1 31342064#1.83 25902677#0 137463474#0 137463474#1 -25796964#0 -32202927#0 -25638527 -25796375#2 -25796375#1 -25796375#0 202070427#1 175761129#0 175761129#1 202070429#4 202070429#5 202070429#6 202070429#7 -149045269#4 -149045269#2 -149045269#1 gneE136 -25596851#6 -25596851#5 -25596851#4 -25596851#3 -25596851#2 -25596851#1 -25596851#0 201880159#1 201880159#2 201789796#0.31 201789796#1 30320943 378466167 266507548 32976755 327975020 327975024 327975024.20 327975024.51 327975019 28132017 32976751 32976751.35 306793670#0 306793670#1" probability="0.27989288"/>
            <route cost="100734.61" edges="-306431310#0 148050456 -148050453#1 -266565295#0 -266565299 -24977590#1 -24977590#0 -233673425#1 -233673425#0 -266567307#1 -30404124 30417892 266567308#0 64464384#1 32009827 266567303 266567294#0 31342064#1 31342064#1.83 305495773#0 266507551 266507552#0 31021475 202070430 202070429#0 202070429#1 202070429#2 202070429#3 175761129#3 153692837#1 153692837#2 153692837#3 153692837#4 153692837#5 30482638#9 30482638#10 30482638#11 30482638#12 201789799#0 201789799#1 201789799#2 201789798#0 201789798#1 202070435#0 202070435#1 202070435#2 202070435#5 202070435#5.37 202070435#5.70 202070435#9 202070435#12 202070435#13 40059576#0 -157305700#5 -157305700#3 -157305700#2 -157305700#1 -157305700#0 -306793671 -39577538 39577537 306793670#1" probability="0.23701692"/>
            <route cost="112297.95" edges="-306431310#0 -148050448#0 -266565295#1 -266565295#0 -266565299 -24977590#1 -24977590#0 -233673425#1 -233673425#0 -266567307#1 -30404124 30417892 266567308#0 64464384#1 32009827 266567303 266567294#0 31342064#1 31342064#1.83 305495773#0 266507551 266507552#0 31021475 202070430 202070429#0 202070429#1 202070429#2 202070429#3 202070429#4 202070429#5 202070429#6 202070429#7 201789794#0 201789794#3 308849647 266507550 201789795 -26180725#2 28132852 39704923 266507553 48395120#0 48395120#1 32976755 327975020 327975024 327975024.20 327975024.51 327975019 28132017 32976751 32976751.35 306793670#0 306793670#1" probability="0.22660888"/>
            <route cost="175357.90" edges="-306431310#0 148050456 148050453#2 -148050447#0 306431310#1 148050455#0 148050455#1 148050455#2 28639688#0 28639688#1 28639688#3 116687469#0 248012815#0 248012815#1 30399325 30399322#1.56 30399322#2 30399322#3.66 542635729 31342347 32203023#0 32203023#2 32203023#2.134 23009600#0 23009600#2 29205273#0 29205273#1 25616922#0 27781947#0 27781947#4 27781947#5 -97304242#3 -97304242#1 -33280103#5 -33280103#3 -33280103#2 -33280103#1 71900674#0 71900674#1 71900674#2 144657087#6 33280102#2 33280102#3 33280102#5 31021475 202070430 202070429#0 202070429#1 202070429#2 202070429#3 202070429#4 202070429#5 202070429#6 202070429#7 -149045269#4 -149045269#2 -149045269#1 25596993#0 25596993#5 -149044751#2 -149044751#1 -149044751#0 201880159#2 201789796#0.31 201789796#1 30320943 378466167 266507548 32976755 327975020 327975024 327975024.20 327975024.51 327975019 28132017 32976751 32976751.35 306793670#0 306793670#1" probability="0.14963726"/>
            <route cost="181464.36" edges="-306431310#0 -148050448#0 -266565295#1 -266565295#0 -266565299 -24977590#1 -24977590#0 -380273343 -266565302 -24537982#4 -24537982#3 -24537982#2 -24537982#1 29048562#0 145069303#0 145069303#1 145069303#2 145069303#4 -26973015 24983010#0 24983010#1 161678033#0 51857519#0 161678034#0 161678034#1 161678034#2 161678034#2.30 161678034#2.46 164051429#0 164051429#1 10425611#0 10425611#0.83 10425611#1 203971380 37480109 90587320 90587320.64 201926266 30482638#0 30482638#3 25640150 -92026769#12 -92026769#11 -92026769#5 -92026769#3 -92026769#2 -92026769#1 -92026769#0 -25895947#1 -25895947#0 202070435#2 202070435#5 202070435#5.37 202070435#5.70 202070435#9 202070435#12 202070435#13 40059576#0 -157305700#5 -157305700#3 -157305700#2 -157305700#1 -157305700#0 -306793671 -39577538 39577537 306793670#1" probability="0.10684406"/>
        </routeDistribution>
    </vehicle>
    <vehicle arrivalPos="18.35" arrivalSpeed="0.00" depart="63848.00" departPos="1.47" id="randUni34055:1" type="random_019">
        <routeDistribution last="0">
            <route cost="85355.74" edges="-174324270#2 -174324270#1 -174324270#0 174324270#2 174324270#3 24495749 339189103#0 339189103#1 339189103#2 339189103#3 138300626#0 138300626#1 -23442105#4 26809976#0 26809976#1 -23442105#1 -25076787#1 -25076787#0 25194376#1 25076749#0 25076749#1 -25182154 33102205#3 136728366#0 136728366#1 136728351#0 136728351#1 -201969576#1 -201969576#0 102818925 102818928#1 389831364 542617943 28418764#0 28418764#0.126 28418764#0.141 28418764#2 32350852#0 32350852#3 32350852#4 51857519#0 161678034#0 161678034#1 161678034#2 161678034#2.30 161678034#2.46 164051429#0 164051429#1" probability="0.71258479"/>
            <route cost="44784.28" edges="-174324270#2 -174324270#1 -174324270#0 174324270#2 174324270#3 24495749 339189103#0 339189103#1 339189103#2 339189103#3 138300626#0 138300626#1 38305646#0 38305646#1 38305646#2 38305646#3 -173169612 -173169611#4 -173169611#3 -173169611#0 201956821#0 201956821#1.68 201963537#1 104010475#0 104012170 -32124745 172488483#0 -83304175#2 -83304175#2.184 -83304175#2.204 -32061928#4 -32061928#3 -32061928#1 -18909061#1 -204388144#1 -204388144#0 -137685135 -51856496#7 -51856496#5 -51856496#4 -51856496#3 -51856496#2 -51856496#1 -51856496#0 -390282481 -156923526#3 145069335#0 145069335#2 29002253 145069280#0 145069369#0 29002252#0 -62798408 -32201172 -24982688#4 -24982688#2 -24982688#1 -24982688#1.52 -145069366#3 -145069366#2 32350852#0 32350852#3 32350852#4 51857519#0 161678034#0 161678034#1 161678034#2 161678034#2.30 161678034#2.46 164051429#0 164051429#1" probability="0.19521230"/>
            <route cost="47983.76" edges="-174324270#2 -174324270#1 -174324270#0 174324270#2 174324270#3 24495749 339189103#0 339189103#1 339189103#2 339189103#3 138300626#0 138300626#1 -23442105#4 26809976#0 26809976#1 -23442105#1 -23442105#0 -151167738#2 -151167738#1 -151167738#0 -201969576#5 -201969576#4 -201969576#1 -201969576#0 -61940355 -24495188 -29458641 -61940356 29458640#0 172517196 -38508400#1 gneE20 33779209#1 151167768#1 172515814#0 172515814#1 305390324 -39649533 32923867#1 32923867#1.96 32923867#2 32923867#3 32923867#4 379723624#0 379723624#1 130996518#0 -233673423 145069386#0 32124563#0 342077199 -145069366#2 32350852#0 32350852#3 32350852#4 51857519#0 161678034#0 161678034#1 161678034#2 161678034#2.30 161678034#2.46 164051429#0 164051429#1" probability="0.07974282"/>
            <route cost="98913.89" edges="-174324270#2 -174324270#1 -174324270#0 174324270#2 174324270#3 174324270#4 116391311 116391315#0 116391315#1 -26372657#3 -26372657#2 -26372657#1 -26372657#0 -26372059#3 -26372059#1 -26372059#0 -26372058 -201956815#2 -26372056 -30482615#6 -30482615#5 -30482615#4 -30482614 -25122731#1 -201963522#9 -201963522#5 -37681425#7 37681424#0 37681424#1 -18809672#5 -18809672#4 -18809672#1 10427692#0 10427692#2 10427692#3 10427692#4 10427692#5 10427692#6 10427692#7 10427692#7.50 10427692#8 -24634510#18 -24634510#15 -24634510#8 -24634510#6 -24634510#5 -24634510#0 -24634505 -24608845 -160314351#1 -160314351#0 -24634509#7 24634507 24634508 -24693977#1 -24693977#0 -32999434#1 32999110#0 32999110#1 402600768#0 402600768#1 51857517#0 51857517#0.33 51857517#1 51857516#1 -266565295#5 -266565295#4 -266565295#3 -266565295#2 -266565295#1 -266565295#0 -266565299 -24977590#1 -24977590#0 -233673425#1 -233673425#0 -266567307#1 -30404124 30417892 64464397#0 64464432#2 -24991571 -24991573 -11014139#1 145069303#0 145069303#1 145069303#2 145069303#4 -26973015 24983010#0 24983010#1 161678033#0 51857519#0 161678034#0 161678034#1 161678034#2 161678034#2.30 161678034#2.46 164051429#0 164051429#1" probability="0.01229622"/>
            <route cost="47734.77" edges="-174324270#2 -174324270#1 -174324270#0 174324270#2 174324270#3 24495749 339189103#0 339189103#1 339189103#2 339189103#3 138300626#0 138300626#1 -23442105#4 26809976#0 26809976#1 -23442105#1 -23442105#0 -151167738#2 -151167738#1 136728366#1 136728351#0 136728351#1 -201969576#1 -201969576#0 -61940355 -24495188 -29458641 -61940356 29458640#0 172517198#0 305390324 -39649533 32923867#1 32923867#1.96 32923867#2 32923867#3 32923867#4 379723624#0 379723624#1 130996518#0 -233673423 145069386#0 32124563#0 342077199 -145069366#2 32350852#0 32350852#3 32350852#4 51857519#0 161678034#0 161678034#1 161678034#2 161678034#2.30 161678034#2.46 164051429#0 164051429#1" probability="0.00016387"/>
        </routeDistribution>
    </vehicle>
    <vehicle arrivalPos="36.83" arrivalSpeed="0.00" depart="63854.00" departPos="26.61" id="randUni33225:1" type="random_019">
        <routeDistribution last="0">
            <route cost="5709.90" edges="51856496#6 51856496#8 204388144#0 204388144#1 18909061#0 389831363#0 32061928#2 32061928#4 24599188#0 24599188#0.75 24599188#0.94 172488482#0 -32124744 -201089423#2 -201089423#1 -32999434#1 -24634414#5 -24634414#4 -24634414#3 24634416 315358253#1 315358253#2 315358253#3 402600768#0 402600768#1 51857517#0 51857517#0.33 51857517#1 51857518#1 32978638#0 32978638#1 24972185#0 24972185#2 24972185#2.111 24972185#9 24537982#0 24537982#2 24537982#3 24537982#4 266565302 380273343 -233673425#1 -233673425#0 -266567307#1 -30404124 30417892 266567308#0 64464384#1 32009827 266567303 24971737#0 24971737#3 -32199989#1 -32199989#0 -32199969#5 -32199969#4 -32199969#1 -164051410#1 -164051410#0 24977473#0 54154922#0 54154922#1 26071515#0 26071515#1 4324820 164051399 201956817 33279254#1 556434727 542630099 354967545#0.45 354967545#1 -25188983#1 -25188983#0 -354967514#2 -168243629#2 -168243629#1 141058765#2 141058765#2.33 103718178 -201278216#1 -201278214#1 -29458645 -29458645.13 -29458645.28 131118468#0 131118468#0.16 131118468#1 131118468#3 131118468#4 305390335 201278218#0 306396705 -103718173 -27893434#1 -27893434#0 -23184317 20975948#0 20975943#0 20975943#1 20975943#2 -205182378#12 -205182378#11" probability="0.87927815"/>
            <route cost="35962.22" edges="51856496#6 32202011#0 -37451605 37451605 -32202011#1 -51856496#7 -51856496#5 -51856496#4 -51856496#3 -51856496#2 -51856496#1 -51856496#0 -390282481 -156923526#3 -156923526#2 -10425610#2 -102818928#1 -102818928#0 -102818928#0.78 -61940355 -24495188 -29458641 -61940356 29458640#0 172517198#0 356952270 54033673#0 54033673#0.28 54033673#2 54033673#3 29458645 29458645.65 29458645.81 37282738 103718186 37282688#2 37282688#4 37282688#5 48742425#0 48742425#1 -20588641#4 -20588641#0 -201926269#1 -201926269#0 -72883541#3 20975939#0 201926265#1 20588624#0 201278210#6 201278210#7 201278210#9 -205182378#11" probability="0.11874662"/>
            <route cost="334533.78" edges="51856496#6 32202011#0 37649447#0 37649448#0 37649448#1 145069394#0 145069394#1 145069391 145069373#0 145069294#0 32201042 32201044#0 32201044#1 32201044#2 233673423 28418763 -379723624#1 -379723624#0 -32923867#4 -32923867#3 -32923867#2 -32923867#1 -32923867#0 130996520 130996520.58 172519650 306396705 174321447 58295043 32923863#2 266607804#0 266607804#1 266607804#2 266607803#0 266607803#1 266607803#2 266607792#0 266607792#5 200949176#0 200949176#1 116765451#0 116765451#3 390835794#0 390835794#1 266607799 168249926#0 168249926#1 29027936#0 29027936#1 233673413#0 233673413#1 207091130 207091132#0 207091132#1 207091132#2 207091132#3 207091132#4 266607796 266607798 233673420#0 233673420#1 201243230#0 201243230#1 233673410#0 233673410#1 233673410#5 233673410#6 266607801#0 266607801#1 266607802#0 266607802#1 266607795#0 266607795#1 266607795#6 266607800#0 201243226#0 266607805#0 266607805#1 32881185#0 51872703 28124854#0 28124854#1 51872706 51872706.54 -61671904 -55600044#2 -55600044#1 -55600044#0 -22603945#1 -22603945#1.86 -22603945#1.97 22603944#1 305495779#0 -55600046#1 -41567676#1 -41567676#0 gneE125 gneE121 -22603934#0 22603932#0 22603932#1 439871826 -20266195#4 -20266195#3 -20405626#4 -20405626#3 -20405626#2 -20405626#1 -20405627 20405628#1 20405628#3 -72883546 -20405617#4 -20405617#3 -20405617#2 -20405617#1 -20405617#0 201278210#6 201278210#7 201278210#9 -205182378#11" probability="0.00184036"/>
            <route cost="163448.63" edges="51856496#6 32202011#0 37649447#0 37649448#0 37649448#1 145069394#0 145069394#1 145069391 145069373#0 145069294#0 32201042 32201044#0 32201044#1 32201044#2 233673423 28418763 -379723624#1 -379723624#0 -32923867#4 -32923867#3 -32923867#2 -32923867#1 -32923867#0 130996520 130996520.58 172519650 356952270 54033673#0 54033673#0.28 54033673#2 54033673#3 29458645 29458645.65 29458645.81 37282738 103718186 37282688#2 37282688#4 37282688#5 -205182378#15 -205182378#14 -205182378#13 -205182378#12 -205182378#11" probability="0.00013086"/>
            <route cost="189521.18" edges="51856496#6 32202011#0 37649447#0 37649448#0 37649448#1 145069394#0 145069394#1 145069391 145069373#0 145069294#0 32201042 32201044#0 32201044#1 32201044#2 233673423 28418763 -379723624#1 -379723624#0 -32923867#4 -32923867#3 -32923867#2 -32923867#1 -32923867#0 130996520 130996520.58 172519650 306396705 174321447 58295043 -39443316#2 39443315#1 4819338#4 163586462 28269810#0 28269810#2 28269810#3 -20975954#1 20975943#2 -205182378#12 -205182378#11" probability="0.00000400"/>
        </routeDistribution>
    </vehicle>
    <vehicle arrivalPos="0.00" arrivalSpeed="0.00" depart="63857.00" departPos="36.39" id="h8212c1:1" type="default_019">
        <routeDistribution last="0">
            <route cost="5918.57" edges="-201238724 -24634505 -24608845 -160314351#1 -160314351#0 -24634509#7 -24634509#0 -22716549#6 -201089423#1 -32999434#1 -24634414#5 -24634414#4 -24634414#3 24634416 315358253#1 315358253#2 315358253#3 402600768#0 402600768#1 51857517#0 51857517#0.33 51857517#1 51857518#1 32978638#0 32978638#1 24972185#0 24972185#2 24972185#2.111 24972185#9 24537982#0 24537982#2 24537982#3 24537982#4 266565302 380273343 -233673425#1 -233673425#0 -266567307#1 -30404124 30417892 266567308#0 64464384#1 32009827 266567303 266567294#0 25797090#1 201444272#0 201444272#1 201444272#3 29027727#0 29027727#4 29027727#6 29027727#7 29027727#9 152077572#0 152077572#2 152077572#2.79 54858974 542727960 30399316#0 30399316#0.52 30399316#2 51745097#0 51745097#1 4942660 -4942659#1 24537805#0 64442509#0 128070690 229018941 -72562672 -72562701 -27082004 -30131199 -72562650" probability="0.95971000"/>
            <route cost="187828.87" edges="-201238724 -24634505 -24608845 -160314351#1 -160314351#0 -24634506#2 -31395281 31395281 24634506#2 160314351#0 160314351#1 24608845 24634505 201238724 201238718#1 201238718#2 174800513 201201945#0 201201945#1 201201945#2 201201945#3 201201945#7 -40888359 201089420#0 315358257#0 315358257#0.43 -315358254#1 -164078536 -320733909#2 -320733909#0 -320733910#1 -23622271#6 -23622271#5 -23622271#1 -42738709#1 -42738709#0.161 -42738708 -35744086#2 -126909938 -614568192 -126909931 -126909931.208 -25508272#0 gneE152 gneE151 gneE151.97 gneE149 -30131201#2 -30131201#0 -30131200#2 -30131200#0 -194377108#3 -194377108#0 -194377108#0.175 -192768914 -542730346#1 -542730346#0 -128070665#1 -128070665#0 -128070665#0.47 -128070667#1 -128070667#0 -128070666#1 -128070666#0 -72562672 -72562701 -27082004 -30131199 -72562650" probability="0.03561097"/>
            <route cost="194590.80" edges="-201238724 -24634505 -24608845 -160314351#1 -160314351#0 -24634506#2 -31395281 31395281 24634506#2 160314351#0 160314351#1 24608845 24634505 201238724 201238718#1 201238718#2 174800513 201201945#0 201201945#1 -136436468#2 26677213#0 201950259#0 201950259#4 -25117391#2 -25117391#1 315358257#0 315358257#0.43 -315358254#1 -164078536 -320733909#2 -320733909#0 -320733910#1 -23622271#6 -23622271#5 -23622271#1 -42738709#1 -42738709#0.161 -42738708 -35744086#2 -126909938 -614568192 -126909931 -126909931.208 -25508272#0 gneE152 gneE151 gneE151.97 gneE149 -30131201#2 -30131201#0 -30131200#2 -30131200#0 -194377108#3 -194377108#0 -194377108#0.175 -192768914 -542730346#1 -542730346#0 -128070665#1 -128070665#0 -128070665#0.47 -128070667#1 -128070667#0 -128070666#1 -128070666#0 -72562672 -72562701 -27082004 -30131199 -72562650" probability="0.00438297"/>
            <route cost="298001.42" edges="-201238724 24634510#0 24634510#1 24634510#6 24634510#7 24634510#9 24634510#16 -10427692#8 -10427692#7 -10427692#6 -10427692#5 -10427692#4 -10427692#3 -10427692#2 -10427692#1 18809672#0 18809672#2 18809672#5 -37681424#1 -37681424#0 37681425#7 201963522#5 201963522#6 25122731#0 30482614 30482615#1 30482615#5 30482615#6 -26729232#2 -26729232#0 -38305646#4 -38305646#2 -38305646#1 -38305646#0 -23442105#4 26809976#0 26809976#1 -23442105#1 -25076787#1 -25076787#0 25194376#1 25076749#0 25076749#1 -25182154 33102205#3 136728366#0 136728366#1 136728351#0 136728351#1 -201969576#1 -201969576#0 102818925 102818928#1 389831364 542617943 28418764#0 28418764#0.126 28418764#0.141 28418764#2 32350852#0 32350852#3 32350852#4 51857519#0 161678034#0 161678034#1 161678034#2 161678034#2.30 161678034#2.46 24970784#0 164051410#0 164051410#1 32199969#0 32199969#2 32199969#5 32199989#0 32199989#1 323248156#0 25797090#1 201444272#0 201444272#1 201444272#3 29027727#0 29027727#4 29027727#6 29027727#7 29027727#9 152077572#0 152077572#2 152077572#2.79 54858974 542727960 30399316#0 30399316#0.52 30399316#2 51745097#0 51745097#1 4942660 -4942659#1 24537805#0 64442509#0 128070690 229018941 -72562672 -72562701 -27082004 -30131199 -72562650" probability="0.00028591"/>
            <route cost="213621.84" edges="-201238724 24634510#0 24634510#1 -138300620#6 176550249#3 176550249#4 174800513 201201953#0 40888360#0 22724699#2 22724699#3 22724699#7 137132998 201143840 201234440 -379510292 -28319300#2 201089420#0 315358257#0 315358257#0.43 -315358254#1 -164078536 -320733909#2 -320733909#0 -320733910#1 -23622271#6 -23622271#5 -23622271#1 -42738709#1 -42738709#0.161 -42738708 -35744086#2 -126909938 -614568192 -126909931 -126909931.208 -25508272#0 gneE152 gneE151 gneE151.97 gneE149 -30131201#2 -30131201#0 -30131200#2 -30131200#0 -194377108#3 -194377108#0 -194377108#0.175 -192768914 -542730346#1 -542730346#0 -128070665#1 -128070665#0 -128070665#0.47 -128070667#1 -128070667#0 -128070666#1 -128070666#0 -72562672 -72562701 -27082004 -30131199 -72562650" probability="0.00001016"/>
        </routeDistribution>
    </vehicle>
    <vehicle arrivalPos="25.00" arrivalSpeed="0.00" depart="63862.00" departPos="9.92" id="h21150c2:1" type="default_019">
        <routeDistribution last="1">
            <route cost="3684.16" edges="306396705 -33779209#2 gneE19 38508400#1 172515811#0 306086241 61940356 172515808 24495188 61940355 201969576#0 201969576#1 201969576#2 201969576#5 201969576#6 201969576#7 29497467 124812856#0 124812856#1 201956821#0 201956821#1.68 201963537#1 104010475#0 104012170 -32124745 172488483#0 -83304175#2 -83304175#2.184 -83304175#2.204 -32061928#4 -32061928#3 -32061928#1 -18909061#1 -204388144#1 -204388144#0 -137685135 -51856496#7 -51856496#5 -51856496#4 -51856496#3 -51856496#2 -51856496#1 -51856496#0 -390282481 -156923526#3 145069335#0 145069335#2 29002253 145069280#0 145069369#0 145069371#0 25148803 25148808 32229742#3 32229742#4 32229742#5 145069311#0 145069316#0 145069316#1 145069313#2 -103512667#2 -103512667#1 -145069287#7 -145069287#7.50 145069328 145069363#0 145069272 145069362#0 107677354#1 77670297#0 77670297#1 32020916#0 77912233 32200416 29027840 77912237 32200414#0 -51856492#2 -29238184#1 -145069300#1 -145069300#1.112 -29458097#2 24972185#0 24972185#2 24972185#2.111 24972185#9 24537982#0 24537982#2 24537982#3 24537982#4 266565302 380273343 -233673425#1 -233673425#0 -266567307#1 -30404124 30417892 266567308#0 64464384#1 32009827 266567303 266567294#0 31342064#1 31342064#1.83 305495773#0 266507551 266507552#0 31021475 202070430 202070429#0 202070429#1 202070429#2 202070429#3 202070429#4 202070429#5 202070429#6 202070429#7 201789794#0 201789794#3 308849647 266507550 30320943 23622426 -195073412#2 -195073412#1 -195073412#0 195073415 266507536 27550700 27454737 266507535 32930761 146973160 266885714 146973156#0 450076615#0 161680739 27453586#0 gneE119" probability="0.44195070"/>
            <route cost="13580.53" edges="306396705 -103718173 -27893434#1 -27893434#0 -23184317 168245119#0 -20975950#0 37282688#2 37282688#4 37282688#5 48742425#0 48742425#1 -20588641#4 -20588641#0 201926269#2 201926269#3 -266887588#1 -266887588#0 -266887593#6 -266887593#3 -266887591 -141058757 111525330#0 350320331#0 266885723#0 161680739 27453586#0 gneE119" probability="0.42121832"/>
            <route cost="46184.63" edges="306396705 174321447 58295043 -39443316#2 39443315#1 4819338#4 163586462 28269810#0 -20975952#2 20975948#3 28269810#3 28269810#4 28269810#5 -20975946#1 201278210#7 20266198 389840423#0 389840423#1 201926269#1 201926269#2 201926269#3 -266887588#1 -266887588#0 -266887593#6 -266887593#3 -266887591 -141058757 111525330#0 350320331#0 266885723#0 161680739 27453586#0 gneE119" probability="0.09123467"/>
            <route cost="31351.65" edges="306396705 174321447 58295043 32923863#2 266607804#0 266607804#1 266607804#2 4819338#0 4819338#1 4819338#2 4819338#4 163586462 28269810#0 28269810#2 28269810#3 28269810#4 30482619 -205182378#7 -205182378#6 -20588629#1 -20588629#0 -201278210#3 -201278210#2 20588633 20314044#1 72883546 20405628#4 -201278209#1 -201926265#6 -30054829#0 72883541#0 -20266190#2 -20266190#1 -266887593#3 -266887591 -141058757 111525330#0 350320331#0 266885723#0 161680739 27453586#0 gneE119" probability="0.03168233"/>
            <route cost="12509.29" edges="306396705 -103718173 -27893434#1 -27893434#0 -23184317 168245119#0 -20975950#0 37282688#2 37282688#4 37282688#5 23184252#0 23184252#1 389840423#0 389840423#1 201926269#1 201926269#2 201926269#3 -266887588#1 -266887588#0 -266887593#6 -266887593#3 -266887591 -141058757 111525330#0 350320331#0 266885723#0 161680739 27453586#0 gneE119" probability="0.01391398"/>
        </routeDistribution>
    </vehicle>
    <vehicle arrivalPos="230.00" arrivalSpeed="0.00" depart="63864.00" departPos="95.34" id="h8672c2:1" type="default_019">
        <routeDistribution last="0">
            <route cost="4957.80" edges="24634510#1 24634510#6 204588664#0 23436553#3 -22690205#3 -22690205#2 -22690205#1 233675413#4 233675413#7 139230366 27920078#0 27920078#1 -32124745 -32124743 -32124744 -201089423#2 22716549#0 24634509#0 24634509#1 -24634506#2 -24634506#1 -24634506#0 160314346#1 -315392062#4 -24693977#1 -24693977#0 -32999434#1 -24634414#5 -24634414#4 -24634414#3 24634416 315358253#1 315358253#2 315358253#3 402600768#0 402600768#1 51857517#0 51857517#0.33 51857517#1 51857518#1 32978638#0 32978638#1 24972185#0 24972185#2 24972185#2.111 24972185#9 24537982#0 24537982#2 24537982#3 24537982#4 266565302 380273343 -233673425#1 -233673425#0 -266567307#1 -30404124 30417892 266567308#0 64464384#1 32009827 266567303 24971737#0 24971737#3 -32199989#1 -32199989#0 -32199969#5 -32199969#4 -32199969#1 -164051410#1 -164051410#0 24977473#0 54154922#0 54154922#1 26071515#0 26071515#1 4324820 164051399 201956817 33279254#1 556434727 -201953160#4 -208010459#1 -461125445 -461125446#2 -115881041#4 -115881041#3 -115881041#0 -58622231#5 -58622231#2 -266887588#1 -266887588#0 -266887593#6 20266190#0 20266190#2 -72883541#0 30054829#0 201926265#5 201278209#0 201278209#2 -20405619 -57827563#0 20266195#0 20266195#2 20266195#4 -439871826 -22486112#6 -22486112#5 -22486112#4 -22486112#3 -22486112#2 -30054884#1 -30054884#0 -141058755#1 -141058755#0 -51262567#1 22603944#0 22603945#0 22603945#1.135 22603945#1.145 55600044#0 55600044#1 55600044#2 61671904 -51872706 -51872707 -28124854#0 -51872703 -32881185#1 41494424#0 233673422#0 233673422#2 233673422#4 233673422#5 233673422#7 233673422#9" probability="0.97377823"/>
            <route cost="209176.18" edges="24634510#1 24634510#6 24634510#7 24634510#9 24634510#16 -10427692#8 -10427692#7 -10427692#6 -10427692#5 -10427692#4 -10427692#3 -10427692#2 -10427692#1 18809672#0 18809672#2 18809672#5 -37681424#1 -37681424#0 37681425#7 201963522#5 201963522#6 25122731#0 30482614 30482615#1 30482615#5 30482615#6 -26729232#2 -26729232#0 -38305646#4 -38305646#2 -38305646#1 -38305646#0 -23442105#4 26809976#0 26809976#1 -23442105#1 -25076787#1 -25076787#0 25194376#1 25076749#0 25076749#1 -25182154 33102205#3 136728366#0 136728366#1 136728351#0 136728351#1 -201969576#1 -201969576#0 102818925 102818928#1 389831364 32124561#0 32124561#1 32124561#3 32124561#4 233673423 28418763 -379723624#1 -379723624#0 -32923867#4 -32923867#3 -32923867#2 -32923867#1 -32923867#0 130996520 130996520.58 172519650 356952270 54033673#0 54033673#0.28 54033673#2 54033673#3 29458645 29458645.65 29458645.81 37282738 103718186 37282688#2 37282688#4 37282688#5 23184252#0 23184252#1 -20266198 -201278210#8 -201278210#6 -201278210#5 -201278210#4 -201278210#3 -201278210#2 -201278210#1 -57827563#3 -57827563#2 -57827563#1 -57827563#0 20266195#0 20266195#2 20266195#4 -439871826 -22603932#1 -22603932#0 22603934#0 gneE120 gneE124 41567676#0 41567676#1 55600046#0 305495779#1 22603944#0 22603945#0 22603945#1.135 22603945#1.145 55600044#0 55600044#1 55600044#2 61671904 -51872706 -51872707 -28124854#0 -51872703 -32881185#1 41494424#0 233673422#0 233673422#2 233673422#4 233673422#5 233673422#7 233673422#9" probability="0.02452188"/>
            <route cost="32706.71" edges="24634510#1 24634510#6 204588664#0 23436553#3 -22690205#3 -22690205#2 -22690205#1 233675413#4 -25145011#2 -25145011#0 -653473569#2 -653473569#1 -25149001#5 -25149001#4 25190140#0 -173167517 -25141430#0 -41051113#1 -25141428#2 173167523 -173167527#0 25136980#7 25136980#8 25136980#9 -25149251#1 -25149251#0 173169611#4 25171366#0 25171366#1 25171366#2 25076787#1 -23442105#0 -151167738#2 -151167738#1 136728366#1 136728351#0 136728351#1 -201969576#1 -201969576#0 -61940355 -24495188 -29458641 -61940356 29458640#0 172517196 -38508400#1 gneE20 33779209#1 -103718173 -27893434#1 -27893434#0 -23184317 20975948#0 20975943#0 20975943#1 20975954#1 28269810#4 30482619 -205182378#7 -205182378#6 -205182378#5 -205182378#4 -205182378#3 -28124764#3 21224499#1 21224499#1.132 203976003#0 203976003#1 203976003#2 203976003#3 203976003#4 203976003#6 203976003#9 203976003#10 203976003#11 201286892#0 -51872702 -41494423#1 -51872706 -51872707 -28124854#0 -51872703 -32881185#1 41494424#0 233673422#0 233673422#2 233673422#4 233673422#5 233673422#7 233673422#9" probability="0.00152551"/>
            <route cost="142791.18" edges="24634510#1 -138300620#6 176550249#3 176550249#4 -201238718#2 -201238718#1 -201238724 -24634505 -24608845 -160314351#1 -160314351#0 -24634509#7 24634507 24634508 -24693977#1 -24693977#0 -32999434#1 32999110#0 32999110#1 402600768#0 402600768#1 51857517#0 51857517#0.33 51857517#1 51857516#1 -266565295#5 -266565295#4 -266565295#3 -266565295#2 -266565295#1 -266565295#0 -266565299 -24977590#1 -24977590#0 -233673425#1 -233673425#0 -266567307#1 -30404124 30417892 64464397#0 64464432#2 -24991571 -24991573 -11014139#1 145069303#0 145069303#1 145069303#2 145069303#4 -26973015 24983010#0 24983010#1 161678033#0 -32350852#4 -32350852#3 -32350852#1 -28418764#2 -28418764#1 -28418764#0.88 -28418764#0.109 -542617943 -389831364 -102818928#1 -102818928#0 -102818928#0.78 -61940355 -24495188 -29458641 -61940356 29458640#0 172517198#0 356952270 54033673#0 54033673#0.28 54033673#2 54033673#3 29458645 29458645.65 29458645.81 201278214#0 201278216#0 29458647#0 37282369 354967544#0 -28124729#3 -20588641#0 -201926269#1 -201926269#0 -72883541#3 -72883541#2 20266189#0 20266189#1 -201926265#2 20588624#0 20588624#1 20588624#2 -205182378#6 -205182378#5 -205182378#4 -205182378#3 -205182378#2 -205182378#0 -32530108#5 -32530108#2 -32530108#1 -390842192#4 -390842192#3 -390842192#1 -141058755#4 -141058755#1 -141058755#0 -51262567#1 22603944#0 22603945#0 22603945#1.135 22603945#1.145 55600044#0 55600044#1 55600044#2 61671904 -51872706 -51872707 -28124854#0 -51872703 -32881185#1 41494424#0 233673422#0 233673422#2 233673422#4 233673422#5 233673422#7 233673422#9" probability="0.00017438"/>