<routes >
    <vType color="red" id="default_017" vClass="passenger"/>
    <vType color="blue" id="random_017" vClass="passenger"/>
    <vehicle arrivalPos="200.00" arrivalSpeed="0.00" depart="58527.00" departPos="3.97" id="h970c2:1" type="default_017">
        <routeDistribution last="0">
            <route cost="697.78" edges="103512667#0 103512667#1 103512667#2 32234776#0 145069351 145069313#0 145069313#2 -103512667#2 -103512667#1 -103512667#0 103512671 -33102477 -33102476 -36689751#2 10425609#0 10425609#1 201963537#1 -164051413 -653473569#5 -653473569#4 -653473569#2 -653473569#1 -653473569#0 -653473568#1 -653473568#0 -18813598#8 -18813598#7 -18813598#6 -18813598#1 18809673#0 23621955#0 23621955#2 23621955#3 23621955#6 23621955#8 23621955#10 42487766#0 201201940#0 201201940#3 128361093#0 449057060 35926529 449057056 378946908 128361091 379795371 378946906 128361098 -35926528#2 -35926528#1 -130185488#3 -130185488#2 -130185488#0 -136728344#5 -136728344#4 -136728344#3 -136728344#2 -136728344#0 -266561177#1 -266561177#0 -27830333#1 -27830333#0 -266561174#1 -391606911#4 -391606911#3 -391606911#2 -391606911#1 -391606911#0 -325180705#3" probability="0.69660151"/>
            <route cost="13506.09" edges="103512667#0 -145069287#7 -145069287#7.50 32230348 145069342#0 35926319#1 -108310253 -29458096 -51856495#2 -29458097#2 -32978638#3 -32978638#0 32021112#0 168702040#1 168702040#2 168702040#3 168702040#4 168702039#0 168702039#1 32999434#0 201089423#0 201089423#2 32124744 32124743 285716192#0 285716192#0.83 104010439#1 202070434#0 202070434#2 -139230366 -233675413#8 -233675413#6 -233675413#3 -233675413#2 -233675413#1 -233675413#0 -136728347#4 -201963533#5 -201963533#4 -201963533#1 -201963533#1.120 -201963533#1.145 -201963533#0 -285549250#1 -128361102#1 128361107#0 128361107#1 449057056 378946908 128361091 379795371 378946906 449057059 449057052 109483352#0 109483352#1 -201238725#5 -201238725#3 27998676#0 148529632#0 148529632#1 148529632#2 -23623693 -23623692#1 -23623705 -23623701#0 -24754837#2 24754854#0 24754854#2 24754854#3 -390068133#0 -393420112#0 -23622520#2 -23622520#1 -37256211 173658909 -391606911#3 -391606911#2 -391606911#1 -391606911#0 -325180705#3" probability="0.23284320"/>
            <route cost="4663.63" edges="103512667#0 103512667#1 -103396186 -32084380 32229976 32229975#0 32229975#1 32229975#2 37451605 -32202011#1 51856496#8 204388144#0 204388144#1 -33102476 -36689751#2 10425609#0 10425609#1 201963537#1 104010475#0 104012170 104010460#1 202070434#0 202070434#2 -139230366 -233675413#8 -25145011#2 -25145012#5 -25145012#4 -25145012#3 -25187889 25145014#1 25187891 -136728347#4 -201963533#5 -201963533#4 -201963533#1 -201963533#1.120 -201963533#1.145 -201963533#0 -285549250#1 -128361102#1 23623674#0 23623674#11 27998675#1 27998676#0 148529632#0 148529632#1 148529632#2 -23623693 -23623692#1 -23623705 -23623701#0 -24754837#2 -24754837#1 -29353676#2 -29353676#1 23623720 393420116#5 23622520#0 -37256211 173658909 -391606911#3 -391606911#2 -391606911#1 -391606911#0 -325180705#3" probability="0.05338577"/>
            <route cost="3300.33" edges="103512667#0 103512667#1 103512667#2 32234776#0 145069351 145069313#0 145069313#2 -103512667#2 -103512667#1 -103512667#0 103512671 -33102477 -33102476 -36689751#2 10425609#0 10425609#1 201963537#1 -164051413 -653473569#5 -653473569#4 -653473569#2 -653473569#1 -653473569#0 -653473568#1 -653473568#0 -18813598#8 -18813598#7 -18813598#6 -18813598#1 18809673#0 18809673#7 18809673#9 18809673#12 18809673#13 392631301 23622107#0 23622107#3 23622107#4 23622107#7 23622107#8 25341141#0 25341141#1 164051424 201202386#0 201201948 164051420#0 164051420#1 -24754876#13 -24754876#11 -24754876#10 -24754876#7 -24754876#6 -24754876#4 -24754876#3 -24754876#2 -24754876#0 -41139660#1 -390068133#1 -390068133#0 -393420112#0 -23622520#2 -23622520#1 -23622520#0 -393420116#5 -393420116#4 23623717 -266561177#1 -266561177#0 -27830333#1 -27830333#0 -266561174#1 -391606911#4 -391606911#3 -391606911#2 -391606911#1 -391606911#0 -325180705#3" probability="0.01466194"/>
            <route cost="3857.16" edges="103512667#0 103512667#1 103512667#2 32234776#0 32226141#0 358042226 40801168 -32226141#0 -32234776#1 -103512667#2 -103512667#1 -103512667#0 103512671 -33102477 -33102476 -36689751#2 10425609#0 10425609#1 201963537#1 -164051413 -653473569#5 25145013#0 -25145012#6 -25145012#5 -25145012#4 -25145012#3 -25187889 25145014#1 25187891 -136728347#4 -201963533#5 -201963533#4 -201963533#1 -201963533#1.120 -201963533#1.145 -201963533#0 -285549250#1 -128361102#1 23623674#0 23623674#11 27998675#1 27998676#0 148529632#0 148529632#1 148529632#2 148529632#3 148529632#4 29353676#0 29353676#1 29353676#2 -24754837#0 23622520#0 -37256211 173658909 -391606911#3 -391606911#2 -391606911#1 -391606911#0 -325180705#3" probability="0.00250758"/>
        </routeDistribution>
    </vehicle>
    <vehicle arrivalPos="0.00" arrivalSpeed="0.00" depart="58531.00" departPos="27.29" id="h8166c1:1" type="default_017">
        <routeDistribution last="4">
            <route cost="102594.18" edges="-201238718#1 -201238724 24634510#0 24634510#1 24634510#6 204588664#0 23436553#3 -22690205#3 -22690205#2 -22690205#1 233675413#4 -25145011#2 -25145011#0 653473569#3 653473569#5 164051413 124812857#0 201956811#0 36689751#0 33102476 18909064 gneE3 103512667#0 -145069287#7 -145069287#7.50 145069328 145069363#0 145069272 145069362#0 107677354#1 77670297#0 77670297#1 32020916#0 77912233 32200416 29027840 77912237 32200414#0 29027839#0 29027839#2 31343367#0 24537982#0 24537982#2 24537982#3 24537982#4 266565302 380273343 -233673425#1 -233673425#0 -266567307#1 -30404124 30417892 266567308#0 64464384#1 32009827 266567303 266567294#0 25797090#1 201444272#0 201444272#1 201444272#3 29027727#0 29027727#4 29027727#6 29027727#7 29027727#9 152077572#0 152077572#2 152077572#2.79 54858974 542727960 30399316#0 30399316#0.52 30399316#2 51745097#0 51745097#1 144655546#0 150746347#0 150746347#1 150746347#2 150746347#3 150746347#4 144655547#0 144655547#1 144655547#2 379723623#0 379723623#2 201828014#1 201828014#2 201828014#3 201828014#4 127076894#0 127076894#2 41522169#0 41522169#1" probability="0.24333385"/>
            <route cost="151246.15" edges="-201238718#1 -201238724 -24634505 -24608845 -160314351#1 -160314351#0 -24634506#2 -31395281 31395281 24634506#2 160314351#0 160314351#1 24608845 24634505 201238724 201238718#1 201238718#2 201201950#0 201201950#1 201201950#2 24634413#0 24634413#1 24634413#2 37386279 -24634414#4 -24634414#3 24634416 -315358253#0 -315358248#1 -315358245 -202092675.36 -4942389#1 -4942389#0 386687235 42745545#0 42745545#2 42745545#3 42745545#4 -25955175#2 -148050452#1 -148050452#0 148050455#1 148050455#2 28639688#0 28639688#1 28639688#3 116687469#0 248012815#0 248012815#1 30399325 30399322#1.56 30399322#2 30399322#3.66 542635729 31342347 32203023#0 32203023#2 32203023#2.134 31342350#0 31342350#1 31342350#2 31342350#2.130 97304242#0 97304242#2 97304242#4 97304242#5 97304242#6 97304242#7 97304242#8 97304242#9 97304242#10 97304242#12 -32140253 -51743953#3 32140256#0 32140256#1 25377287#1 26134507#0 -25801580#2 -25801580#1 -25801580#0 25377287#6 25377287#7 25377287#8 32203888#0 32203888#1 32203888#3 29459182#0 144655547#0 144655547#1 144655547#2 379723623#0 379723623#2 201828014#1 201828014#2 201828014#3 201828014#4 127076894#0 127076894#2 41522169#0 41522169#1" probability="0.22197207"/>
            <route cost="140738.34" edges="-201238718#1 -201238718#0 160314345#0 160314345#1 160314345#2 160314345#3 160314345#4 160314345#5 160314345#6 -24608842#2 -24608842#0 -25955175#0 -266565295#3 -266565295#2 -266565295#1 -266565295#0 -266565299 -24977590#1 -24977590#0 -233673425#1 -233673425#0 -266567307#1 -30404124 30417892 266567308#0 64464384#1 32009827 266567303 266567294#0 25797090#1 201444272#0 201444272#1 24846867#0 25665370#0 -29238187#1 -29238187#0 137463478#3 -274823622#10 -274823622#7 -274823622#3 -274823622#2 -274823622#1 -274823622#0 -274823622#0.68 -31342351#1 23009600#0 23009600#2 29205273#0 29205273#1 25616922#0 25616922#1 25616922#6 -27761238#5 -27761238#4 -27761238#3 -27761238#2 -27761238#1 -27761238#0 27782265#10 97304242#10 97304242#12 -32140253 -51743953#3 32140256#0 32140256#1 25377287#1 26134507#0 26134507#1 39863083#0 -28781036#7 -28781036#6 -28781036#5 -28781036#4 -28781036#3 -28781036#2 -28781036#1 32203888#1 32203888#3 29459182#0 144655547#0 144655547#1 144655547#2 379723623#0 379723623#2 201828014#1 201828014#2 201828014#3 201828014#4 127076894#0 127076894#2 41522169#0 41522169#1" probability="0.20673896"/>
            <route cost="183909.53" edges="-201238718#1 -201238718#0 160314345#0 160314345#1 160314345#2 160314345#3 160314345#4 -315358245 -202092675.36 -4942389#1 -4942389#0 386687235 42745545#0 42745545#2 42745545#3 42745545#4 42745545#5 42745545#5.128 42745545#6 28639688#0 28639688#1 28639688#3 116687469#0 248012815#0 248012815#1 30399325 30399322#1.56 25367735#1 -25344437#5 30399316#2 51745097#0 51745097#1 144655546#0 150746347#0 150746347#1 150746347#2 150746347#3 150746347#4 144655547#0 144655547#1 144655547#2 379723623#0 379723623#2 201828014#1 201828014#2 201828014#3 201828014#4 127076894#0 127076894#2 41522169#0 41522169#1" probability="0.16458972"/>
            <route cost="183379.42" edges="-201238718#1 -201238718#0 160314345#0 160314345#1 160314345#2 160314345#3 160314345#4 -315358245 -202092675.36 -4942389#1 -4942389#0 386687235 42745545#0 42745545#2 42745545#3 42745545#4 42745545#5 42745545#5.128 42745545#6 28639688#0 28639688#1 28639688#3 116687469#0 248012815#0 248012815#1 30399325 30399322#1.56 30399322#2 30399322#3.66 542635729 542727960 30399316#0 30399316#0.52 30399316#2 51745097#0 51745097#1 144655546#0 28763451#0 25665421#0 25665421#1 25665421#2 29459182#0 144655547#0 144655547#1 144655547#2 379723623#0 379723623#2 201828014#1 201828014#2 201828014#3 201828014#4 127076894#0 127076894#2 41522169#0 41522169#1" probability="0.16336540"/>
        </routeDistribution>
    </vehicle>
    <vehicle arrivalPos="6.94" arrivalSpeed="0.00" depart="58535.00" departPos="27.35" id="h13673c1:3" type="default_017">
        <routeDistribution last="4">
            <route cost="128376.31" edges="22690205#3 -23436553#3 -218647947#1 -24634510#6 -138300620#6 176550249#3 176550249#4 201201950#0 201201950#1 201201950#2 201201950#3 201201950#4 272042145 42745545#0 42745545#2 42745545#3 42745545#4 42745545#5 42745545#5.128 42745545#6 28639688#0 28639688#1 28639688#3 116687469#0 248012815#0 248012815#1 30399325 30399322#1.56 30399322#2 30399322#3.66 30399319 -152077572#2 -152077572#1 -29238188#3 -29238188#2 -29238188#0 -137463478#3 -137463478#2 -137463478#1 -137463478#0 25796398#0 305495773#0 266507551 266507552#0 31021475 202070430 202070429#0 202070429#1 202070429#2 202070429#3 202070429#4 202070429#5 202070429#6 202070429#7 -149045269#4 -149045269#2 -149045269#1 gneE136 41139095 25596974#0" probability="0.00000000"/>
            <route cost="33076.57" edges="22690205#3 23436553#4 22879845 -22690206#0 -22690205#2 -22690205#1 233675413#4 -25145011#2 -25145011#0 653473569#3 653473569#5 164051413 104010475#0 104012170 -32124745 -32124743 -32124744 -201089423#2 -201089423#1 24693977#0 24693977#1 315392062#0 160314345#0 160314345#1 160314345#2 160314345#3 160314345#4 160314345#5 160314345#6 -24608842#2 -24608842#0 -25955175#0 -266565295#3 -266565295#2 -266565295#1 -266565295#0 -266565299 -24977590#1 -24977590#0 -233673425#1 -233673425#0 -266567307#1 -30404124 30417892 266567308#0 64464384#1 32009827 266567303 266567294#0 31342064#1 31342064#1.83 305495773#0 266507551 266507552#0 31021475 202070430 202070429#0 202070429#1 202070429#2 202070429#3 202070429#4 202070429#5 202070429#6 202070429#7 201789794#0 201789794#3 308849647 266507550 -201789796#1 -201789796#0 -201880159#1 25596851#0 25596851#1 25596851#2 25596851#3 25596851#4 25596851#5 25596851#6 41139095 25596974#0" probability="0.00000008"/>
            <route cost="44347.51" edges="22690205#3 -23436553#3 -218647947#1 -24634510#6 -24634510#5 -24634510#0 -24634505 160314346#0 160314346#1 160314345#0 160314345#1 160314345#2 160314345#3 -24634417 386687239#1 28361235#0 202092675 315358245.27 315358248#0 315358253#0 315358253#1 315358253#2 315358253#3 402600768#0 402600768#1 51857517#0 51857517#0.33 51857517#1 51857516#1 -266565295#5 -266565295#4 -266565295#3 -266565295#2 -266565295#1 -266565295#0 -266565299 -24977590#1 -24977590#0 -233673425#1 -233673425#0 -266567307#1 -30404124 30417892 266567308#0 64464384#1 32009827 266567303 266567294#0 31342064#1 31342064#1.83 305495773#0 266507551 266507552#0 31021475 202070430 202070429#0 202070429#1 202070429#2 202070429#3 202070429#4 202070429#5 202070429#6 202070429#7 -149045269#4 -149045269#2 -149045269#1 gneE136 -201789797#1 -25597196#12 -25597196#11 -25597196#9 -153692837#3 gneE134 -481432711 25596974#0" probability="0.00000000"/>
            <route cost="58426.06" edges="22690205#3 23436553#4 22879845 -22690206#0 -22690205#2 -22690205#1 -233675413#3 -233675413#2 -233675413#1 -233675413#0 -136728347#4 -201963533#5 -201963533#4 -201963533#1 -201963533#1.120 -201963533#1.145 -201963533#0 -285549250#1 -128361102#1 128361107#0 128361107#1 449057056 60931370 213252671#0 128361109#0 128361109#1 128361109#3 128361109#4 201238719#0 170018165#0 -224892361#8 -224892361#6 -224892361#2 -224892361#1 286646456#1 315358255#0 -315358257#2 -315358257#0.26 25117391#0 25117391#2 -201950259#6 -201950259#3 26677214#0 26677214#3 26677214#4 26677214#5 201950250#0 201950250#1 201950250#2 201950247#0 201950247#1 201950247#2 201950247#3 201950247#4 201950247#5 201950247#6 201950247#7 201950247#8 -315358242#2 4942376 25665446#1 25665446#2 54169280#4 4942381 42745545#2 42745545#3 42745545#4 42745545#5 42745545#5.128 42745545#6 28639688#0 28639688#1 28639688#3 116687469#0 248012815#0 248012815#1 30399325 30399322#1.56 30399322#2 30399322#3.66 542635729 31342347 32203023#0 32203023#2 32203023#2.134 31342350#0 31342350#1 31342350#2 31342350#2.130 391208990 391029009#0 391029009#0.69 391029009#1 391029009#1.157 41425835 41425835.214 41425835.236 151167747 151167747.23 -28132852 26180725#1 -36291830 -201789796#1 -201789796#0 -201880159#1 25596851#0 25596851#1 25596851#2 25596851#3 25596851#4 25596851#5 25596851#6 41139095 25596974#0" probability="0.00048572"/>
            <route cost="813.84" edges="22690205#3 23436553#4 22879845 -22690206#0 -22690205#2 -22690205#1 233675413#4 -25145011#2 -25145011#0 653473569#3 653473569#5 164051413 124812857#0 201956811#0 36689751#0 33102476 18909064 gneE3 103512667#0 -145069287#7 -145069287#7.50 145069328 145069363#0 145069272 145069362#0 107677354#1 77670297#0 77670297#1 32020916#0 77912233 32200416 29027840 77912237 32200414#0 29027839#0 29027839#2 31343367#0 29048562#0 11014139#0 24991573 24991571 64464405 266567306 64464408 64464384#1 32009827 266567303 266567294#0 31342064#1 31342064#1.83 305495773#0 266507551 266507552#0 31021475 202070430 202070429#0 202070429#1 202070429#2 202070429#3 175761129#3 153692837#1 153692837#2 gneE134 -481432711 25596974#0" probability="0.99951420"/>
        </routeDistribution>
    </vehicle>
    <vehicle arrivalPos="0.00" arrivalSpeed="0.00" depart="58542.00" departPos="58.73" id="h2372c2:1" type="default_017">
        <routeDistribution last="4">
            <route cost="162033.75" edges="-24634506#0 -160314346#0 24634505 24634510#0 24634510#1 24634510#6 204588664#0 23436553#3 -22690205#3 -22690205#2 -22690205#1 233675413#4 -25145011#2 -25145011#0 653473569#3 653473569#5 164051413 104010475#0 104012170 -32124745 -32124743 -32124744 -201089423#2 -201089423#1 24693977#0 24693977#1 315392062#0 160314345#0 160314345#1 160314345#2 160314345#3 160314345#4 160314345#5 160314345#6 -24608842#2 -24608842#0 -25955175#0 -266565295#3 -266565295#2 -266565295#1 -266565295#0 -266565299 -24977590#1 -24977590#0 -233673425#1 -233673425#0 -266567307#1 -30404124 30417892 266567308#0 64464384#1 32009827 266567303 266567294#0 25797090#1 201444272#0 201444272#1 201444272#3 29027727#0 29027727#4 29027727#6 29027727#7 29027727#9 152077572#0 152077572#2 152077572#2.79 54858974 542727960 30399316#0 30399316#0.52 30399316#2 51745097#0 51745097#1 144655546#0 28763451#0 29459180#0 29459180#1 32140444#1 32140444#4 51743953#0 51743953#2 32140255 -31021477#2 -27196044#8 -27196044#5 -27196044#3 -27196044#2 -27196044#1 -342059250#1 -25705904#1" probability="0.44999092"/>
            <route cost="101524.33" edges="-24634506#0 -160314346#0 -24608845 -160314351#1 -160314351#0 -24634509#7 -24634509#0 -22716549#6 201089423#2 32124744 32124743 285716192#0 285716192#0.83 201963535 104010354 124812857#0 201956811#0 36689751#0 33102476 18909064 gneE3 103512667#0 -145069287#7 -145069287#7.50 145069328 145069363#0 145069272 145069362#0 107677354#1 77670297#0 77670297#1 32020916#0 77912233 32200416 29027840 77912237 32200414#0 29027839#0 29027839#2 31343367#0 29048562#0 11014139#0 24991573 24991571 64464405 266567306 64464408 64464384#1 32009827 266567303 266567294#0 31342064#1 31342064#1.83 305495773#0 266507551 266507552#0 27202149 202070427#0 202070427#1 202070427#2 33280103#0 33280103#1 33280103#2 33280103#3 33280103#4 33280103#4.68 97304242#0 25626605#0 28133181#0 -39863084#4 -39863084#3 -39863084#2 -28133036#1 -28133036#0 25623128#5 25623128#6 97304242#9 97304242#10 97304242#12 25638761#0 25638761#1 25638761#2 25638761#3 -27196044#8 -27196044#5 -27196044#3 -27196044#2 -27196044#1 -342059250#1 -25705904#1" probability="0.22346278"/>
            <route cost="177308.31" edges="-24634506#0 -160314346#0 -24608845 -160314351#1 -160314351#0 -24634509#7 24634507 24634508 315392062#0 160314345#0 160314345#1 160314345#2 160314345#3 160314345#4 -315358245 -202092675.36 -4942389#1 -4942389#0 386687235 42745545#0 42745545#2 42745545#3 42745545#4 42745545#5 42745545#5.128 42745545#6 28639688#0 28639688#1 28639688#3 116687469#0 248012815#0 248012815#1 30399325 30399322#1.56 30399322#2 30399322#3.66 542635729 31342347 32203023#0 32203023#2 32203023#2.134 31342350#0 31342350#1 31342350#2 31342350#2.130 97304242#0 25626605#0 28133181#0 -39863084#4 28133199 -28133152#0 97304242#7 97304242#8 97304242#9 97304242#10 97304242#12 -31021477#2 -27196044#8 -27196044#5 -27196044#3 -27196044#2 -27196044#1 -342059250#1 -25705904#1" probability="0.13028501"/>
            <route cost="184600.39" edges="-24634506#0 -160314346#0 -24608845 -160314351#1 -160314351#0 -24634509#7 24634507 24634508 315392062#0 201238718#0 201238718#1 201238718#2 201201950#0 201201950#1 201201950#2 24634413#0 24634413#1 24634413#2 37386279 -24634414#4 -24634414#3 24634416 -315358253#0 -315358248#1 -315358245 -202092675.36 -4942389#1 -4942389#0 386687235 42745545#0 42745545#2 42745545#3 -24608843 -24608842#0 25955175#1 -148050452#1 -148050452#0 -148050455#0 148050457#0 148050453#5 25794520 24890429#2 -203127020#4 -140684000#1 -140684000#0 165520704 -24989986 165520706 140684000#0 140684000#1 203127020#0 200741048 24890450 248012815#1 30399325 30399322#1.56 30399322#2 30399322#3.66 542635729 31342347 32203023#0 32203023#2 32203023#2.134 23009600#0 23009600#2 29205273#0 29205273#1 25616922#0 25616922#1 27782265#0 27782265#6 28133099 -27761238#1 28133087 97304242#9 97304242#10 97304242#12 -31021477#2 -27196044#8 -27196044#5 -27196044#3 -27196044#2 -27196044#1 -342059250#1 -25705904#1" probability="0.10857442"/>
            <route cost="263565.84" edges="-24634506#0 160314346#1 160314345#0 160314345#1 160314345#2 160314345#3 160314345#4 -315358245 -202092675.36 -4942389#1 -4942389#0 386687235 42745545#0 42745545#2 42745545#3 42745545#4 42745545#5 42745545#5.128 42745545#6 28639688#0 28639688#1 28639688#3 116687469#0 248012815#0 248012815#1 30399325 30399322#1.56 30399322#2 30399322#3.66 30399319 -152077572#2 -152077572#1 -29238188#3 -25895966#7 -25895966#5 -274823622#2 -274823622#1 -274823622#0 -274823622#0.68 -31342351#1 23009600#0 23009600#2 29205273#0 29205273#1 25616922#0 27781947#0 -27761238#6 -25616922#7 27782265#0 27782265#6 28133099 -27761238#1 28133087 97304242#9 97304242#10 97304242#12 -31021477#2 -27196044#8 -27196044#5 -27196044#3 -27196044#2 -27196044#1 -342059250#1 -25705904#1" probability="0.08768686"/>
        </routeDistribution>
    </vehicle>
    <vehicle arrivalPos="16.23" arrivalSpeed="0.00" depart="58549.00" departPos="59.21" id="h1144c1:1" type="default_017">
        <routeDistribution last="0">
            <route cost="1446.88" edges="358042226 40801168 -32226141#0 -32234776#1 -103512667#2 -103512667#1 -145069287#7 -145069287#7.50 145069328 145069363#0 145069272 145069362#0 107677354#1 77670297#0 77670297#1 32020916#0 77912233 32200416 29027840 77912237 32200414#0 29027839#0 29027839#2 31343367#0 29048562#0 11014139#0 24991573 24991571 64464405 266567306 64464408 64464384#1 32009827 266567303 266567294#0 25797090#1 201444272#0 201444272#1 201444272#3 29027727#0 29027727#4 29027727#6 29027727#7 29027727#9 152077572#0 152077572#2 152077572#2.79 54858974 4942408 54858973#0 54858973#0.62 54858973#1 54858973#2 29119849#0 29119849#1 29119850 29119850.70 30399326#0 -137246371#2 -137246371#1 -138002149#2 -138002149#1 -138002149#0 -25316932#4 -10425532#5 -447569998#1 -447569997#0 -315358252#1 -129379922 -315358246 -129379920#1 -129379920#0 -129379921#1 -129379921#0 129379968 -201950263#10 -201950263#6 -25117391#2 -25117391#1 315358257#0 315358257#0.43 -315358254#1 -164078536 -201894096#8 -201894096#5 -201894096#3" probability="0.77106662"/>
            <route cost="27679.85" edges="358042226 40801168 -32226141#0 -32234776#1 -103512667#2 -103512667#1 -145069287#7 -145069287#7.50 32230348 145069342#0 35926319#1 -108310253 -29458096 -51856495#2 -29458097#2 -32978638#3 -32978638#0 32021112#0 168702040#1 168702040#2 168702040#3 168702040#4 168702039#0 168702039#1 -24634414#5 -24634414#4 -24634414#3 -24634414#2 -24634414#1 -24634414#0 23166741#2 23166741#5 201201945#0 201201945#1 201201945#2 201201945#3 201201945#7 201201945#8 201089420#0 315358257#0 315358257#0.43 -315358254#1 -164078536 -201894096#8 -201894096#5 -201894096#3" probability="0.22188953"/>
            <route cost="39606.80" edges="358042226 40801168 -32226141#0 -32234776#1 -103512667#2 -103512667#1 -145069287#7 -145069287#7.50 32230348 145069342#0 35926319#1 -108310253 -29458096 -51856495#2 -29458097#2 -32978638#3 -32978638#0 32021112#0 168702040#1 168702040#2 168702040#3 168702040#4 -315358253#3 -315358253#2 -315358253#1 -315358253#0 -315358248#1 -315358245 -202092675.36 -4942389#1 -4942389#0 -136436466 386687242 23166741#0 -40888350 -201950247#6 -201950247#5 -201950247#4 -201950247#3 -201950247#2 -201950247#1 -201950247#0 -201950250#2 -201950250#1 -201950250#0 -26677542#1 -26677542#0 -201950263#6 -25117391#2 -25117391#1 315358257#0 315358257#0.43 -315358254#1 -164078536 -201894096#8 -201894096#5 -201894096#3" probability="0.00692652"/>
            <route cost="44699.28" edges="358042226 40801168 -32226141#0 -32234776#1 -103512667#2 -103512667#1 -145069287#7 -145069287#7.50 145069328 145069363#0 145069272 -29119898 -32924041#3 -108310252 -108310253 -29458096 -27825654#6 -29458097#2 -32978638#3 -32978638#0 32021112#0 168702040#1 168702040#2 168702040#3 168702040#4 168702039#0 168702039#1 32999434#0 24693977#0 24693977#1 315392062#0 201238718#0 201238718#1 201238718#2 174800513 201201945#0 201201945#1 201201945#2 201201945#3 201201945#7 201201945#8 201089420#0 315358257#0 315358257#0.43 -315358254#1 -164078536 -201894096#8 -201894096#5 -201894096#3" probability="0.00007904"/>
            <route cost="33732.04" edges="358042226 52513194 300750369#0 145069325#0 145069311#0 32229973 -32229976 32084380 103396186 -103512667#1 -103512667#0 103512671 -33102477 18909061#0 389831363#0 32061928#2 32061928#4 24599188#0 24599188#0.75 24599188#0.94 172488482#0 -32124744 -201089423#2 -201089423#1 24693977#0 24693977#1 315392062#0 201238718#0 201238718#1 201238718#2 174800513 201201945#0 201201945#1 201201945#2 201201945#3 201201945#7 201201945#8 201089420#0 315358257#0 315358257#0.43 -315358254#1 -164078536 -201894096#8 -201894096#5 -201894096#3" probability="0.00003828"/>
        </routeDistribution>
    </vehicle>
    <vehicle arrivalPos="5.95" arrivalSpeed="0.00" depart="58553.00" departPos="53.98" id="h20335c2:3" type="default_017">
        <routeDistribution last="1">
            <route cost="9113.24" edges="144659492#1 32200762#3 32200762#5 29027840 77912237 32200414#0 29027839#0 29027839#2 31343367#0 29048562#0 145069303#0 145069303#1 145069303#2 145069303#4 -26973015 24983010#0 24983010#1 161678033#0 -32350852#4 -32350852#3 -32350852#1 145069366#1 145069366#3 24982688#0 24982688#0.12 24982688#2 29002614 32201042 32201044#0 32201044#1 32201044#2 233673423 28418763 -379723624#1 -379723624#0 -32923867#4 -32923867#3 -32923867#2 -32923867#1 -32923867#0 130996520 130996520.58 172519650 306396705 174321447 58295043 32923863#2 266607804#0 266607804#1 266607804#2 266607803#0 266607803#1 -26339472#5 -26339471#3 26339473#0 -26814848#1 -26814848#0" probability="0.56773704"/>
            <route cost="1869.64" edges="144659492#1 32200762#3 32200762#5 29027840 77912237 32200414#0 29027839#0 29027839#2 31343367#0 29048562#0 145069303#0 145069303#1 145069303#2 145069303#4 -26973015 -24692391#3 -24692391#1 144659495 144659489 24762523#0 24762523#1 31773007 77670297#0 52572753#0 52572753#2 29119898 145069331#0 145069287#0 145069287#0.136 -103512667#0 103512671 -33102477 -204388144#1 -204388144#0 -137685135 -51856496#7 -51856496#5 -51856496#4 -51856496#3 -51856496#2 -51856496#1 -51856496#0 -390282481 -156923526#3 145069335#0 145069335#2 29002253 145069280#0 145069369#0 29002252#0 -62798408 -32201172 145069294#0 32201042 32201044#0 32201044#1 32201044#2 233673423 28418763 -379723624#1 -379723624#0 -32923867#4 -32923867#3 -32923867#2 -32923867#1 -32923867#0 130996520 130996520.58 172519650 306396705 -33779209#2 gneE19 -174609517#3 -33814393#3 -33814393#1 -33814393#0 -391208988 26339462#0 201933880#0 201933880#3 26339468#0 26339468#2 -26814848#3 -26814848#1 -26814848#0" probability="0.33850124"/>
            <route cost="12519.96" edges="144659492#1 32200762#3 -77912241 32200416 29027840 77912237 32200414#0 29027839#0 29027839#2 31343367#0 29048562#0 145069303#0 145069303#1 145069303#2 145069303#4 -26973015 24983010#0 24983010#1 161678033#0 -32350852#4 -32350852#3 -32350852#1 -28418764#2 -28418764#1 -28418764#0.88 -28418764#0.109 -542617943 -389831364 -102818928#1 -102818928#0 -102818928#0.78 -61940355 -24495188 -29458641 -61940356 29458640#0 172517196 -38508400#1 -174609517#3 -33814393#3 -33814393#1 -33814393#0 -391208988 26339462#0 201933880#0 201933880#3 26339468#0 26339468#2 -26814848#3 -26814848#1 -26814848#0" probability="0.09346422"/>
            <route cost="51765.17" edges="144659492#1 32200762#3 32200762#5 29027840 77912237 32200414#0 -51856492#2 -29238184#1 -145069300#1 -145069300#1.112 51856495#0 29458096 108239938 104236369 108310250 29119898 145069331#0 145069287#0 145069287#0.136 103512667#1 103512667#2 32234776#0 32226141#0 358042226 52513194 300750369#0 145069325#0 145069384 37649448#0 37649448#1 145069394#0 145069394#1 145069391 145069373#0 145069294#0 32201042 32201044#0 32201044#1 32201044#2 233673423 28418763 -379723624#1 -379723624#0 -32923867#4 -32923867#3 -32923867#2 -32923867#1 -32923867#0 130996520 130996520.58 172519650 306396705 174321447 58295043 32923863#2 266607804#0 266607804#1 266607804#2 266607803#0 266607803#1 266607803#2 266607792#0 -26339471#6 -26339471#3 26339473#0 -26814848#1 -26814848#0" probability="0.00029750"/>
            <route cost="19214.14" edges="144659492#1 32200762#3 32200762#5 29027840 77912237 32200414#0 -51856492#2 -29238184#1 -145069300#1 -145069300#1.112 51856495#0 29458096 108239938 104236369 108310250 29119898 145069331#0 145069287#0 145069287#0.136 -103512667#0 103512671 -33102477 -33102476 -36689751#2 10425609#0 10425609#1 201956819#0 201956820 -29497467 -201969576#7 -201969576#6 -201969576#5 -201969576#4 -201969576#1 -201969576#0 -61940355 -24495188 -29458641 -61940356 29458640#0 172517196 -38508400#1 -174609517#3 -33814393#3 -33814393#1 -33814393#0 -391208988 26339462#0 201933880#0 201933880#3 26339468#0 26339468#2 -26814848#3 -26814848#1 -26814848#0" probability="0.00000000"/>
        </routeDistribution>
    </vehicle>
    <vehicle arrivalPos="230.00" arrivalSpeed="0.00" depart="58554.00" departPos="27.53" id="h13135c2:1" type="default_017">
        <routeDistribution last="1">
            <route cost="28006.36" edges="-25597196#11 -25597196#9 -25597196#6 -25597196#5 -25597196#4 -25597196#3 -25597196#2 -25597196#1 42745460 42745461#0 42745461#1 54154922#0 54154922#1 26071515#0 26071515#1 4324820 26471940#0 -164051438#2 -164051438#1 -164051438#0 -164051438#0.46 -164051438#0.62 -26471933 140834262#0 140834255#0 201953160#0 -208010459#1 -461125445 -461125446#2 -115881041#4 -115881041#3 -115881041#0 -58622231#5 -58622231#2 -201926269#3 -201926269#2 -201926269#1 -201926269#0 -72883541#3 -72883541#2 -72883541#1 -72883541#0 30054829#0 201926265#5 201278209#0 201278209#2 -20405619 -57827563#0 20266195#0 20266195#2 20266195#4 -439871826 -22603932#1 -22603932#0 22603934#0 gneE120 gneE124 41567676#0 41567676#1 55600046#0 305495779#1 22603944#0 22603945#0 22603945#1.135 22603945#1.145 55600044#0 55600044#1 55600044#2 61671904 -51872706 -51872707 -28124854#0 -51872703 -32881185#1 41494424#0 233673422#0 233673422#2 233673422#4 233673422#5 233673422#7 233673422#9" probability="0.71748756"/>